* NGSPICE file created from tt_um_ohmy90_ringOscillator.ext - technology: sky130B

.subckt sky130_fd_sc_hs__fa_1 A B CIN VGND VNB VPB VPWR COUT SUM a_1100_75# a_1107_347#
+ a_318_389# a_315_75# a_916_347# a_69_260# a_936_75# a_465_249# a_237_75# a_501_75#
+ a_509_347# a_217_368#
X0 a_465_249# B a_936_75# VNB sky130_fd_pr__nfet_01v8_lvt ad=0.1792u pd=1.84u as=0.1536u ps=1.76u w=0.64 l=0.15
**devattr s=3072,176 d=3584,184
X1 a_501_75# A VGND VNB sky130_fd_pr__nfet_01v8_lvt ad=0.2048u pd=1.92u as=0.35624u ps=2.67168u w=0.64 l=0.15
**devattr s=6763,255 d=3584,184
X2 a_318_389# B a_217_368# VPB sky130_fd_pr__pfet_01v8 ad=0.39175u pd=3.13u as=0.37337u ps=2.92u w=1 l=0.15
**devattr s=7467,292 d=7835,313
X3 VPWR CIN a_509_347# VPB sky130_fd_pr__pfet_01v8 ad=0.48134u pd=3.29437u as=0.345u ps=2.69u w=1 l=0.15
**devattr s=7100,271 d=6200,262
X4 a_69_260# CIN a_315_75# VNB sky130_fd_pr__nfet_01v8_lvt ad=0.2496u pd=2.06u as=0.1536u ps=1.76u w=0.64 l=0.15
**devattr s=3072,176 d=4992,206
X5 a_501_75# a_465_249# a_69_260# VNB sky130_fd_pr__nfet_01v8_lvt ad=0.2048u pd=1.92u as=0.2496u ps=2.06u w=0.64 l=0.15
**devattr s=4992,206 d=4608,200
X6 VGND A a_1100_75# VNB sky130_fd_pr__nfet_01v8_lvt ad=0.35624u pd=2.67168u as=0.59253u ps=3.51333u w=0.64 l=0.15
**devattr s=14384,346 d=8491,282
X7 VGND a_69_260# SUM VNB sky130_fd_pr__nfet_01v8_lvt ad=0.4119u pd=3.08913u as=0.4218u ps=4.1u w=0.74 l=0.15
**devattr s=8436,410 d=7663,279
X8 VGND CIN a_501_75# VNB sky130_fd_pr__nfet_01v8_lvt ad=0.35624u pd=2.67168u as=0.2048u ps=1.92u w=0.64 l=0.15
**devattr s=3584,184 d=6336,227
X9 a_237_75# A VGND VNB sky130_fd_pr__nfet_01v8_lvt ad=0.1536u pd=1.76u as=0.35624u ps=2.67168u w=0.64 l=0.15
**devattr s=7663,279 d=3072,176
X10 a_509_347# A VPWR VPB sky130_fd_pr__pfet_01v8 ad=0.345u pd=2.69u as=0.48134u ps=3.29437u w=1 l=0.15
**devattr s=9745,328 d=7100,271
X11 COUT a_465_249# VPWR VPB sky130_fd_pr__pfet_01v8 ad=0.6384u pd=5.62u as=0.5391u ps=3.6897u w=1.12 l=0.15
**devattr s=13216,566 d=12768,562
X12 a_465_249# B a_916_347# VPB sky130_fd_pr__pfet_01v8 ad=0.3u pd=2.6u as=0.355u ps=2.71u w=1 l=0.15
**devattr s=7100,271 d=6000,260
X13 a_1107_347# CIN a_465_249# VPB sky130_fd_pr__pfet_01v8 ad=0.52u pd=3.70667u as=0.3u ps=2.6u w=1 l=0.15
**devattr s=6000,260 d=8900,289
X14 VPWR A a_1107_347# VPB sky130_fd_pr__pfet_01v8 ad=0.48134u pd=3.29437u as=0.52u ps=3.70667u w=1 l=0.15
**devattr s=8900,289 d=13962,352
X15 COUT a_465_249# VGND VNB sky130_fd_pr__nfet_01v8_lvt ad=0.3996u pd=4.04u as=0.4119u ps=3.08913u w=0.74 l=0.15
**devattr s=7844,402 d=7992,404
X16 a_1100_75# B VGND VNB sky130_fd_pr__nfet_01v8_lvt ad=0.59253u pd=3.51333u as=0.35624u ps=2.67168u w=0.64 l=0.15
**devattr s=8491,282 d=6784,362
X17 a_509_347# a_465_249# a_69_260# VPB sky130_fd_pr__pfet_01v8 ad=0.345u pd=2.69u as=0.3u ps=2.6u w=1 l=0.15
**devattr s=6000,260 d=6700,267
X18 a_217_368# A VPWR VPB sky130_fd_pr__pfet_01v8 ad=0.37337u pd=2.92u as=0.48134u ps=3.29437u w=1 l=0.15
**devattr s=7960,297 d=7467,292
X19 a_916_347# A VPWR VPB sky130_fd_pr__pfet_01v8 ad=0.355u pd=2.71u as=0.48134u ps=3.29437u w=1 l=0.15
**devattr s=6200,262 d=7100,271
X20 a_936_75# A VGND VNB sky130_fd_pr__nfet_01v8_lvt ad=0.1536u pd=1.76u as=0.35624u ps=2.67168u w=0.64 l=0.15
**devattr s=6336,227 d=3072,176
X21 a_69_260# CIN a_318_389# VPB sky130_fd_pr__pfet_01v8 ad=0.3u pd=2.6u as=0.39175u ps=3.13u w=1 l=0.15
**devattr s=7835,313 d=6000,260
X22 a_1100_75# CIN a_465_249# VNB sky130_fd_pr__nfet_01v8_lvt ad=0.59253u pd=3.51333u as=0.1792u ps=1.84u w=0.64 l=0.15
**devattr s=3584,184 d=14384,346
X23 VPWR a_69_260# SUM VPB sky130_fd_pr__pfet_01v8 ad=0.5391u pd=3.6897u as=0.6384u ps=5.62u w=1.12 l=0.15
**devattr s=12768,562 d=7960,297
X24 VPWR B a_509_347# VPB sky130_fd_pr__pfet_01v8 ad=0.48134u pd=3.29437u as=0.345u ps=2.69u w=1 l=0.15
**devattr s=6700,267 d=9745,328
X25 a_1107_347# B VPWR VPB sky130_fd_pr__pfet_01v8 ad=0.52u pd=3.70667u as=0.48134u ps=3.29437u w=1 l=0.15
**devattr s=13962,352 d=13400,534
X26 a_315_75# B a_237_75# VNB sky130_fd_pr__nfet_01v8_lvt ad=0.1536u pd=1.76u as=0.1536u ps=1.76u w=0.64 l=0.15
**devattr s=3072,176 d=3072,176
X27 VGND B a_501_75# VNB sky130_fd_pr__nfet_01v8_lvt ad=0.35624u pd=2.67168u as=0.2048u ps=1.92u w=0.64 l=0.15
**devattr s=4608,200 d=6763,255
C0 B COUT 0.00688f
C1 VPB VGND 0.01302f
C2 a_465_249# a_315_75# 0
C3 a_465_249# a_237_75# 0
C4 a_1107_347# CIN 0.00192f
C5 a_509_347# a_69_260# 0.0624f
C6 a_916_347# CIN 0.0061f
C7 a_465_249# a_69_260# 0.03228f
C8 CIN VPB 0.12323f
C9 A B 0.26846f
C10 CIN VGND 0.13789f
C11 CIN a_318_389# 0.00717f
C12 SUM VPB 0.01283f
C13 a_509_347# B 0.02783f
C14 a_465_249# B 0.27222f
C15 VPWR COUT 0.12179f
C16 SUM VGND 0.0376f
C17 a_936_75# a_1100_75# 0
C18 a_501_75# a_936_75# 0
C19 SUM CIN 0
C20 VPWR A 0.04912f
C21 a_315_75# VGND 0.00207f
C22 a_69_260# VPB 0.04981f
C23 a_237_75# VGND 0.00252f
C24 a_69_260# VGND 0.15999f
C25 a_69_260# a_318_389# 0.02061f
C26 CIN a_315_75# 0.00121f
C27 a_509_347# VPWR 0.1543f
C28 a_217_368# VGND 0.0017f
C29 a_465_249# VPWR 0.19408f
C30 a_1107_347# B 0.06557f
C31 a_1100_75# COUT 0.00223f
C32 VPB B 0.62725f
C33 a_69_260# CIN 0.10678f
C34 SUM a_315_75# 0
C35 SUM a_237_75# 0
C36 a_1100_75# A 0.01955f
C37 B VGND 0.04033f
C38 a_936_75# A 0.00492f
C39 a_69_260# SUM 0.12447f
C40 a_501_75# A 0.1337f
C41 CIN B 0.19591f
C42 a_465_249# a_1100_75# 0.21113f
C43 a_69_260# a_315_75# 0.00702f
C44 a_1107_347# VPWR 0.21905f
C45 a_465_249# a_936_75# 0.00268f
C46 a_69_260# a_237_75# 0.00693f
C47 a_916_347# VPWR 0.01147f
C48 VPWR VPB 0.24573f
C49 SUM B 0
C50 a_465_249# a_501_75# 0.00555f
C51 a_69_260# a_217_368# 0.01644f
C52 VPWR VGND 0.08465f
C53 A COUT 0
C54 VPWR a_318_389# 0.01234f
C55 VPWR CIN 0.13494f
C56 a_69_260# B 0.03966f
C57 a_465_249# COUT 0.06928f
C58 SUM VPWR 0.10504f
C59 a_509_347# A 0.01252f
C60 a_465_249# A 0.35643f
C61 a_1100_75# VGND 0.25139f
C62 a_936_75# VGND 0.0076f
C63 a_501_75# VGND 0.14715f
C64 VPWR a_237_75# 0
C65 a_1100_75# CIN 0.00368f
C66 a_936_75# CIN 0.00177f
C67 a_465_249# a_509_347# 0.1366f
C68 a_69_260# VPWR 0.1278f
C69 a_501_75# CIN 0.01116f
C70 VPWR a_217_368# 0.01541f
C71 a_1107_347# COUT 0
C72 VPB COUT 0.01419f
C73 a_1107_347# A 0.01477f
C74 COUT VGND 0.07419f
C75 a_916_347# A 0.0016f
C76 VPWR B 0.21956f
C77 A VPB 0.14325f
C78 A VGND 0.13151f
C79 CIN COUT 0
C80 a_69_260# a_1100_75# 0
C81 a_509_347# a_916_347# 0
C82 a_465_249# a_1107_347# 0.15034f
C83 a_69_260# a_936_75# 0
C84 a_509_347# VPB 0.00536f
C85 a_465_249# a_916_347# 0.0195f
C86 a_69_260# a_501_75# 0.02578f
C87 a_465_249# VPB 0.10732f
C88 A CIN 0.46738f
C89 a_465_249# VGND 0.12651f
C90 a_465_249# a_318_389# 0
C91 a_1100_75# B 0.01175f
C92 SUM A 0
C93 a_509_347# CIN 0.02394f
C94 a_501_75# B 0.00904f
C95 a_465_249# CIN 0.29824f
C96 A a_315_75# 0.00252f
C97 A a_237_75# 0.00252f
C98 a_1107_347# VPB 0.01475f
C99 a_69_260# A 0.27191f
C100 A a_217_368# 0
C101 a_1107_347# VGND 0.00417f
C102 a_1100_75# VPWR 0.00321f
C103 VGND VNB 0.99802f
C104 COUT VNB 0.11284f
C105 CIN VNB 0.31573f
C106 A VNB 0.49885f
C107 VPWR VNB 0.79012f
C108 SUM VNB 0.11694f
C109 B VNB 0.61239f
C110 VPB VNB 2.08861f
C111 a_1100_75# VNB 0.01137f
C112 a_501_75# VNB 0.00504f
C113 a_1107_347# VNB 0.00204f
C114 a_509_347# VNB 0.00129f
C115 a_465_249# VNB 0.30402f
C116 a_69_260# VNB 0.15472f
.ends

.subckt sky130_fd_sc_hs__inv_2 a_114_368# w_n38_332# a_27_368# a_30_74# a_21_260#
+ VSUBS
X0 a_114_368# a_21_260# a_30_74# VSUBS sky130_fd_pr__nfet_01v8_lvt ad=0.2072u pd=2.04u as=0.4218u ps=4.1u w=0.74 l=0.15
**devattr s=8436,410 d=4144,204
X1 a_27_368# a_21_260# a_114_368# w_n38_332# sky130_fd_pr__pfet_01v8 ad=0.6384u pd=5.62u as=0.336u ps=2.84u w=1.12 l=0.15
**devattr s=6720,284 d=12768,562
X2 a_30_74# a_21_260# a_114_368# VSUBS sky130_fd_pr__nfet_01v8_lvt ad=0.4218u pd=4.1u as=0.2072u ps=2.04u w=0.74 l=0.15
**devattr s=4144,204 d=8436,410
X3 a_114_368# a_21_260# a_27_368# w_n38_332# sky130_fd_pr__pfet_01v8 ad=0.336u pd=2.84u as=0.6384u ps=5.62u w=1.12 l=0.15
**devattr s=12768,562 d=6720,284
C0 a_21_260# a_30_74# 0.06173f
C1 a_21_260# a_27_368# 0.07533f
C2 w_n38_332# a_114_368# 0.00641f
C3 a_27_368# a_30_74# 0.0376f
C4 a_21_260# a_114_368# 0.11388f
C5 w_n38_332# a_21_260# 0.07759f
C6 a_114_368# a_30_74# 0.16424f
C7 a_27_368# a_114_368# 0.21165f
C8 w_n38_332# a_30_74# 0.00523f
C9 w_n38_332# a_27_368# 0.06315f
C10 a_30_74# VSUBS 0.30324f
C11 a_114_368# VSUBS 0.04146f
C12 a_27_368# VSUBS 0.26758f
C13 a_21_260# VSUBS 0.30548f
C14 w_n38_332# VSUBS 0.40622f
.ends

.subckt inverter CIN A VNB VPB SUM a_2277_390# sky130_fd_sc_hs__fa_1_3/a_916_347#
+ sky130_fd_sc_hs__fa_1_6/VPB sky130_fd_sc_hs__fa_1_4/a_318_389# a_3167_369# sky130_fd_sc_hs__fa_1_7/a_217_368#
+ a_2976_369# sky130_fd_sc_hs__fa_1_6/a_1100_75# sky130_fd_sc_hs__fa_1_2/a_465_249#
+ sky130_fd_sc_hs__fa_1_5/a_936_75# a_487_103# sky130_fd_sc_hs__fa_1_3/VPB sky130_fd_sc_hs__fa_1_4/a_916_347#
+ sky130_fd_sc_hs__fa_1_5/a_318_389# a_301_103# sky130_fd_sc_hs__fa_1_5/a_237_75#
+ sky130_fd_sc_hs__fa_1_6/CIN sky130_fd_sc_hs__fa_1_7/a_1100_75# sky130_fd_sc_hs__fa_1_3/a_465_249#
+ sky130_fd_sc_hs__fa_1_6/a_315_75# sky130_fd_sc_hs__fa_1_5/a_916_347# sky130_fd_sc_hs__fa_1_6/a_318_389#
+ sky130_fd_sc_hs__fa_1_2/a_315_75# sky130_fd_sc_hs__fa_1_6/SUM sky130_fd_sc_hs__fa_1_3/CIN
+ a_203_396# sky130_fd_sc_hs__fa_1_4/a_501_75# sky130_fd_sc_hs__fa_1_4/A sky130_fd_sc_hs__fa_1_6/a_69_260#
+ sky130_fd_sc_hs__fa_1_4/a_465_249# sky130_fd_sc_hs__fa_1_2/a_69_260# sky130_fd_sc_hs__fa_1_6/a_916_347#
+ sky130_fd_sc_hs__fa_1_7/a_318_389# sky130_fd_sc_hs__fa_1_3/SUM a_2561_97# sky130_fd_sc_hs__fa_1_7/VPB
+ sky130_fd_sc_hs__fa_1_6/a_936_75# a_70_620# sky130_fd_sc_hs__fa_1_5/a_465_249# sky130_fd_sc_hs__fa_1_2/a_936_75#
+ sky130_fd_sc_hs__fa_1_7/a_916_347# sky130_fd_sc_hs__fa_1_6/a_237_75# sky130_fd_sc_hs__fa_1_4/VPB
+ sky130_fd_sc_hs__fa_1_2/a_237_75# sky130_fd_sc_hs__fa_1_7/a_315_75# sky130_fd_sc_hs__fa_1_6/a_465_249#
+ a_922_103# sky130_fd_sc_hs__fa_1_7/CIN sky130_fd_sc_hs__fa_1_3/a_315_75# a_2378_411#
+ a_2144_614# sky130_fd_sc_hs__fa_1_5/a_501_75# sky130_fd_sc_hs__fa_1_2/a_1107_347#
+ sky130_fd_sc_hs__fa_1_7/a_69_260# sky130_fd_sc_hs__inv_2_0/a_27_368# sky130_fd_sc_hs__fa_1_3/a_1107_347#
+ sky130_fd_sc_hs__fa_1_3/a_69_260# sky130_fd_sc_hs__fa_1_7/SUM sky130_fd_sc_hs__fa_1_2/a_509_347#
+ sky130_fd_sc_hs__fa_1_4/a_1107_347# sky130_fd_sc_hs__fa_1_7/a_465_249# sky130_fd_sc_hs__fa_1_4/CIN
+ sky130_fd_sc_hs__fa_1_5/a_1107_347# a_902_375# sky130_fd_sc_hs__fa_1_7/a_936_75#
+ sky130_fd_sc_hs__fa_1_6/a_1107_347# sky130_fd_sc_hs__fa_1_7/a_1107_347# sky130_fd_sc_hs__fa_1_2/a_217_368#
+ sky130_fd_sc_hs__fa_1_3/a_936_75# sky130_fd_sc_hs__fa_1_5/B sky130_fd_sc_hs__fa_1_4/SUM
+ sky130_fd_sc_hs__fa_1_3/a_509_347# sky130_fd_sc_hs__fa_1_6/B sky130_fd_sc_hs__fa_1_5/A
+ sky130_fd_sc_hs__fa_1_7/a_237_75# sky130_fd_sc_hs__fa_1_3/a_237_75# a_2569_369#
+ a_3160_97# sky130_fd_sc_hs__fa_1_3/a_217_368# sky130_fd_sc_hs__fa_1_3/B a_304_417#
+ a_495_375# sky130_fd_sc_hs__fa_1_4/a_315_75# a_1086_103# sky130_fd_sc_hs__fa_1_4/a_509_347#
+ sky130_fd_sc_hs__fa_1_7/A sky130_fd_sc_hs__fa_1_5/VPB sky130_fd_sc_hs__fa_1_2/a_1100_75#
+ sky130_fd_sc_hs__fa_1_7/COUT a_465_575# sky130_fd_sc_hs__fa_1_6/a_501_75# sky130_fd_sc_hs__fa_1_2/a_501_75#
+ sky130_fd_sc_hs__fa_1_4/a_69_260# B sky130_fd_sc_hs__inv_2_0/a_30_74# a_2375_97#
+ sky130_fd_sc_hs__fa_1_4/a_217_368# sky130_fd_sc_hs__fa_1_2/VPB sky130_fd_sc_hs__fa_1_5/a_509_347#
+ sky130_fd_sc_hs__fa_1_3/a_1100_75# sky130_fd_sc_hs__inv_2_0/w_n38_332# sky130_fd_sc_hs__fa_1_4/a_936_75#
+ sky130_fd_sc_hs__fa_1_2/a_318_389# sky130_fd_sc_hs__fa_1_5/CIN sky130_fd_sc_hs__fa_1_6/A
+ sky130_fd_sc_hs__fa_1_5/a_217_368# sky130_fd_sc_hs__fa_1_6/a_509_347# sky130_fd_sc_hs__fa_1_4/a_237_75#
+ sky130_fd_sc_hs__fa_1_4/a_1100_75# sky130_fd_sc_hs__fa_1_5/SUM a_2996_97# sky130_fd_sc_hs__fa_1_2/a_916_347#
+ sky130_fd_sc_hs__fa_1_7/B sky130_fd_sc_hs__fa_1_3/A sky130_fd_sc_hs__fa_1_3/a_318_389#
+ sky130_fd_sc_hs__fa_1_5/a_315_75# sky130_fd_sc_hs__fa_1_6/a_217_368# a_3674_614#
+ sky130_fd_sc_hs__fa_1_7/a_501_75# a_2297_97# sky130_fd_sc_hs__fa_1_2/B sky130_fd_sc_hs__fa_1_7/a_509_347#
+ sky130_fd_sc_hs__fa_1_5/a_1100_75# sky130_fd_sc_hs__fa_1_2/A sky130_fd_sc_hs__fa_1_2/SUM
+ sky130_fd_sc_hs__fa_1_3/a_501_75# a_1093_375# a_223_103# sky130_fd_sc_hs__fa_1_4/B
+ sky130_fd_sc_hs__fa_1_5/a_69_260#
Xsky130_fd_sc_hs__fa_1_6 sky130_fd_sc_hs__fa_1_6/A sky130_fd_sc_hs__fa_1_6/B sky130_fd_sc_hs__fa_1_6/CIN
+ sky130_fd_sc_hs__fa_1_6/A VNB sky130_fd_sc_hs__fa_1_6/VPB sky130_fd_sc_hs__fa_1_6/B
+ sky130_fd_sc_hs__fa_1_7/CIN sky130_fd_sc_hs__fa_1_6/SUM sky130_fd_sc_hs__fa_1_6/a_1100_75#
+ sky130_fd_sc_hs__fa_1_6/a_1107_347# sky130_fd_sc_hs__fa_1_6/a_318_389# sky130_fd_sc_hs__fa_1_6/a_315_75#
+ sky130_fd_sc_hs__fa_1_6/a_916_347# sky130_fd_sc_hs__fa_1_6/a_69_260# sky130_fd_sc_hs__fa_1_6/a_936_75#
+ sky130_fd_sc_hs__fa_1_6/a_465_249# sky130_fd_sc_hs__fa_1_6/a_237_75# sky130_fd_sc_hs__fa_1_6/a_501_75#
+ sky130_fd_sc_hs__fa_1_6/a_509_347# sky130_fd_sc_hs__fa_1_6/a_217_368# sky130_fd_sc_hs__fa_1
Xsky130_fd_sc_hs__fa_1_7 sky130_fd_sc_hs__fa_1_7/A sky130_fd_sc_hs__fa_1_7/B sky130_fd_sc_hs__fa_1_7/CIN
+ sky130_fd_sc_hs__fa_1_7/A VNB sky130_fd_sc_hs__fa_1_7/VPB sky130_fd_sc_hs__fa_1_7/B
+ sky130_fd_sc_hs__fa_1_7/COUT sky130_fd_sc_hs__fa_1_7/SUM sky130_fd_sc_hs__fa_1_7/a_1100_75#
+ sky130_fd_sc_hs__fa_1_7/a_1107_347# sky130_fd_sc_hs__fa_1_7/a_318_389# sky130_fd_sc_hs__fa_1_7/a_315_75#
+ sky130_fd_sc_hs__fa_1_7/a_916_347# sky130_fd_sc_hs__fa_1_7/a_69_260# sky130_fd_sc_hs__fa_1_7/a_936_75#
+ sky130_fd_sc_hs__fa_1_7/a_465_249# sky130_fd_sc_hs__fa_1_7/a_237_75# sky130_fd_sc_hs__fa_1_7/a_501_75#
+ sky130_fd_sc_hs__fa_1_7/a_509_347# sky130_fd_sc_hs__fa_1_7/a_217_368# sky130_fd_sc_hs__fa_1
Xsky130_fd_sc_hs__fa_1_0 A B CIN A VNB VPB B CIN SUM a_1086_103# a_1093_375# a_304_417#
+ a_301_103# a_902_375# a_70_620# a_922_103# a_465_575# a_223_103# a_487_103# a_495_375#
+ a_203_396# sky130_fd_sc_hs__fa_1
Xsky130_fd_sc_hs__fa_1_1 A B CIN A VNB VPB B CIN SUM a_3160_97# a_3167_369# a_2378_411#
+ a_2375_97# a_2976_369# a_2144_614# a_2996_97# a_3674_614# a_2297_97# a_2561_97#
+ a_2569_369# a_2277_390# sky130_fd_sc_hs__fa_1
Xsky130_fd_sc_hs__inv_2_0 CIN sky130_fd_sc_hs__inv_2_0/w_n38_332# sky130_fd_sc_hs__inv_2_0/a_27_368#
+ sky130_fd_sc_hs__inv_2_0/a_30_74# sky130_fd_sc_hs__fa_1_7/COUT VNB sky130_fd_sc_hs__inv_2
Xsky130_fd_sc_hs__fa_1_2 sky130_fd_sc_hs__fa_1_2/A sky130_fd_sc_hs__fa_1_2/B CIN sky130_fd_sc_hs__fa_1_2/A
+ VNB sky130_fd_sc_hs__fa_1_2/VPB sky130_fd_sc_hs__fa_1_2/B sky130_fd_sc_hs__fa_1_3/CIN
+ sky130_fd_sc_hs__fa_1_2/SUM sky130_fd_sc_hs__fa_1_2/a_1100_75# sky130_fd_sc_hs__fa_1_2/a_1107_347#
+ sky130_fd_sc_hs__fa_1_2/a_318_389# sky130_fd_sc_hs__fa_1_2/a_315_75# sky130_fd_sc_hs__fa_1_2/a_916_347#
+ sky130_fd_sc_hs__fa_1_2/a_69_260# sky130_fd_sc_hs__fa_1_2/a_936_75# sky130_fd_sc_hs__fa_1_2/a_465_249#
+ sky130_fd_sc_hs__fa_1_2/a_237_75# sky130_fd_sc_hs__fa_1_2/a_501_75# sky130_fd_sc_hs__fa_1_2/a_509_347#
+ sky130_fd_sc_hs__fa_1_2/a_217_368# sky130_fd_sc_hs__fa_1
Xsky130_fd_sc_hs__fa_1_3 sky130_fd_sc_hs__fa_1_3/A sky130_fd_sc_hs__fa_1_3/B sky130_fd_sc_hs__fa_1_3/CIN
+ sky130_fd_sc_hs__fa_1_3/A VNB sky130_fd_sc_hs__fa_1_3/VPB sky130_fd_sc_hs__fa_1_3/B
+ sky130_fd_sc_hs__fa_1_4/CIN sky130_fd_sc_hs__fa_1_3/SUM sky130_fd_sc_hs__fa_1_3/a_1100_75#
+ sky130_fd_sc_hs__fa_1_3/a_1107_347# sky130_fd_sc_hs__fa_1_3/a_318_389# sky130_fd_sc_hs__fa_1_3/a_315_75#
+ sky130_fd_sc_hs__fa_1_3/a_916_347# sky130_fd_sc_hs__fa_1_3/a_69_260# sky130_fd_sc_hs__fa_1_3/a_936_75#
+ sky130_fd_sc_hs__fa_1_3/a_465_249# sky130_fd_sc_hs__fa_1_3/a_237_75# sky130_fd_sc_hs__fa_1_3/a_501_75#
+ sky130_fd_sc_hs__fa_1_3/a_509_347# sky130_fd_sc_hs__fa_1_3/a_217_368# sky130_fd_sc_hs__fa_1
Xsky130_fd_sc_hs__fa_1_4 sky130_fd_sc_hs__fa_1_4/A sky130_fd_sc_hs__fa_1_4/B sky130_fd_sc_hs__fa_1_4/CIN
+ sky130_fd_sc_hs__fa_1_4/A VNB sky130_fd_sc_hs__fa_1_4/VPB sky130_fd_sc_hs__fa_1_4/B
+ sky130_fd_sc_hs__fa_1_5/CIN sky130_fd_sc_hs__fa_1_4/SUM sky130_fd_sc_hs__fa_1_4/a_1100_75#
+ sky130_fd_sc_hs__fa_1_4/a_1107_347# sky130_fd_sc_hs__fa_1_4/a_318_389# sky130_fd_sc_hs__fa_1_4/a_315_75#
+ sky130_fd_sc_hs__fa_1_4/a_916_347# sky130_fd_sc_hs__fa_1_4/a_69_260# sky130_fd_sc_hs__fa_1_4/a_936_75#
+ sky130_fd_sc_hs__fa_1_4/a_465_249# sky130_fd_sc_hs__fa_1_4/a_237_75# sky130_fd_sc_hs__fa_1_4/a_501_75#
+ sky130_fd_sc_hs__fa_1_4/a_509_347# sky130_fd_sc_hs__fa_1_4/a_217_368# sky130_fd_sc_hs__fa_1
Xsky130_fd_sc_hs__fa_1_5 sky130_fd_sc_hs__fa_1_5/A sky130_fd_sc_hs__fa_1_5/B sky130_fd_sc_hs__fa_1_5/CIN
+ sky130_fd_sc_hs__fa_1_5/A VNB sky130_fd_sc_hs__fa_1_5/VPB sky130_fd_sc_hs__fa_1_5/B
+ sky130_fd_sc_hs__fa_1_6/CIN sky130_fd_sc_hs__fa_1_5/SUM sky130_fd_sc_hs__fa_1_5/a_1100_75#
+ sky130_fd_sc_hs__fa_1_5/a_1107_347# sky130_fd_sc_hs__fa_1_5/a_318_389# sky130_fd_sc_hs__fa_1_5/a_315_75#
+ sky130_fd_sc_hs__fa_1_5/a_916_347# sky130_fd_sc_hs__fa_1_5/a_69_260# sky130_fd_sc_hs__fa_1_5/a_936_75#
+ sky130_fd_sc_hs__fa_1_5/a_465_249# sky130_fd_sc_hs__fa_1_5/a_237_75# sky130_fd_sc_hs__fa_1_5/a_501_75#
+ sky130_fd_sc_hs__fa_1_5/a_509_347# sky130_fd_sc_hs__fa_1_5/a_217_368# sky130_fd_sc_hs__fa_1
C0 a_3160_97# sky130_fd_sc_hs__fa_1_2/A 0
C1 sky130_fd_sc_hs__fa_1_4/CIN sky130_fd_sc_hs__fa_1_4/a_509_347# 0
C2 VPB sky130_fd_sc_hs__fa_1_2/SUM 0.00249f
C3 sky130_fd_sc_hs__fa_1_5/B sky130_fd_sc_hs__fa_1_2/a_509_347# 0
C4 CIN sky130_fd_sc_hs__fa_1_6/a_465_249# 0
C5 sky130_fd_sc_hs__fa_1_4/a_1107_347# sky130_fd_sc_hs__fa_1_5/a_69_260# 0
C6 a_3160_97# B 0.00249f
C7 sky130_fd_sc_hs__fa_1_4/A sky130_fd_sc_hs__fa_1_3/a_465_249# 0.00166f
C8 sky130_fd_sc_hs__fa_1_5/a_465_249# sky130_fd_sc_hs__fa_1_6/a_69_260# 0.00395f
C9 sky130_fd_sc_hs__fa_1_3/CIN sky130_fd_sc_hs__fa_1_4/B 0.00174f
C10 sky130_fd_sc_hs__fa_1_5/a_1100_75# CIN 0
C11 sky130_fd_sc_hs__fa_1_6/VPB sky130_fd_sc_hs__fa_1_7/CIN 0.00874f
C12 sky130_fd_sc_hs__fa_1_6/a_318_389# sky130_fd_sc_hs__fa_1_6/CIN 0
C13 sky130_fd_sc_hs__fa_1_6/a_501_75# CIN 0
C14 a_223_103# B -0
C15 sky130_fd_sc_hs__fa_1_2/VPB sky130_fd_sc_hs__fa_1_2/A -0.00343f
C16 sky130_fd_sc_hs__fa_1_5/B sky130_fd_sc_hs__fa_1_5/a_1107_347# 0.04894f
C17 B sky130_fd_sc_hs__fa_1_2/VPB 0.00588f
C18 sky130_fd_sc_hs__fa_1_2/A sky130_fd_sc_hs__fa_1_3/SUM 0
C19 sky130_fd_sc_hs__fa_1_4/A sky130_fd_sc_hs__fa_1_4/CIN 0.16352f
C20 sky130_fd_sc_hs__fa_1_2/a_936_75# sky130_fd_sc_hs__fa_1_2/A 0.00243f
C21 sky130_fd_sc_hs__fa_1_2/A sky130_fd_sc_hs__fa_1_3/CIN 0.00952f
C22 A a_70_620# -0.00107f
C23 sky130_fd_sc_hs__fa_1_5/SUM sky130_fd_sc_hs__fa_1_4/a_465_249# 0
C24 sky130_fd_sc_hs__inv_2_0/a_30_74# sky130_fd_sc_hs__inv_2_0/a_27_368# -0.02234f
C25 sky130_fd_sc_hs__fa_1_3/a_465_249# sky130_fd_sc_hs__fa_1_4/a_1100_75# 0
C26 a_1086_103# sky130_fd_sc_hs__fa_1_7/A 0
C27 A sky130_fd_sc_hs__fa_1_2/a_315_75# 0
C28 CIN sky130_fd_sc_hs__fa_1_5/A 0.00471f
C29 sky130_fd_sc_hs__fa_1_7/CIN sky130_fd_sc_hs__fa_1_7/a_465_249# 0.00274f
C30 sky130_fd_sc_hs__fa_1_2/a_465_249# sky130_fd_sc_hs__fa_1_3/SUM 0
C31 sky130_fd_sc_hs__fa_1_3/a_936_75# sky130_fd_sc_hs__fa_1_3/A 0.00241f
C32 a_3674_614# sky130_fd_sc_hs__fa_1_6/a_465_249# 0
C33 A sky130_fd_sc_hs__fa_1_6/a_465_249# 0.00143f
C34 sky130_fd_sc_hs__fa_1_2/a_465_249# sky130_fd_sc_hs__fa_1_3/CIN 0.00645f
C35 sky130_fd_sc_hs__fa_1_3/a_1107_347# sky130_fd_sc_hs__fa_1_3/B 0.05347f
C36 a_902_375# B 0.00162f
C37 sky130_fd_sc_hs__fa_1_3/a_1107_347# sky130_fd_sc_hs__fa_1_3/A -0.00144f
C38 sky130_fd_sc_hs__fa_1_3/a_916_347# sky130_fd_sc_hs__fa_1_3/CIN 0
C39 sky130_fd_sc_hs__fa_1_6/a_501_75# A 0
C40 sky130_fd_sc_hs__fa_1_7/A sky130_fd_sc_hs__fa_1_7/COUT 0.06188f
C41 sky130_fd_sc_hs__fa_1_6/CIN sky130_fd_sc_hs__fa_1_6/a_315_75# 0
C42 sky130_fd_sc_hs__fa_1_6/B sky130_fd_sc_hs__fa_1_6/CIN 0.08415f
C43 sky130_fd_sc_hs__fa_1_5/a_1100_75# sky130_fd_sc_hs__fa_1_6/a_69_260# 0
C44 CIN sky130_fd_sc_hs__fa_1_5/a_509_347# 0
C45 sky130_fd_sc_hs__fa_1_4/a_465_249# sky130_fd_sc_hs__fa_1_4/B 0.0181f
C46 sky130_fd_sc_hs__fa_1_5/B sky130_fd_sc_hs__fa_1_5/a_237_75# -0
C47 sky130_fd_sc_hs__fa_1_2/VPB sky130_fd_sc_hs__fa_1_2/B 0.01962f
C48 sky130_fd_sc_hs__fa_1_2/B sky130_fd_sc_hs__fa_1_3/SUM 0.00154f
C49 sky130_fd_sc_hs__fa_1_6/B sky130_fd_sc_hs__fa_1_7/a_509_347# 0
C50 sky130_fd_sc_hs__fa_1_6/A sky130_fd_sc_hs__fa_1_6/a_315_75# 0
C51 sky130_fd_sc_hs__fa_1_6/B sky130_fd_sc_hs__fa_1_6/A -0.01436f
C52 sky130_fd_sc_hs__fa_1_6/VPB sky130_fd_sc_hs__fa_1_6/CIN 0.01127f
C53 a_2561_97# a_2144_614# -0
C54 sky130_fd_sc_hs__fa_1_2/B sky130_fd_sc_hs__fa_1_3/CIN 0.0345f
C55 CIN sky130_fd_sc_hs__inv_2_0/w_n38_332# 0.00633f
C56 sky130_fd_sc_hs__fa_1_6/B sky130_fd_sc_hs__fa_1_7/VPB 0.00489f
C57 sky130_fd_sc_hs__fa_1_5/A sky130_fd_sc_hs__fa_1_6/a_69_260# 0
C58 sky130_fd_sc_hs__fa_1_5/A sky130_fd_sc_hs__fa_1_5/a_936_75# 0.00244f
C59 a_1086_103# CIN 0
C60 sky130_fd_sc_hs__inv_2_0/a_30_74# sky130_fd_sc_hs__fa_1_7/a_465_249# 0
C61 a_70_620# a_465_575# 0
C62 sky130_fd_sc_hs__fa_1_6/VPB sky130_fd_sc_hs__fa_1_6/A -0.0033f
C63 sky130_fd_sc_hs__fa_1_2/VPB sky130_fd_sc_hs__fa_1_5/a_465_249# 0
C64 sky130_fd_sc_hs__fa_1_4/A sky130_fd_sc_hs__fa_1_5/a_315_75# 0
C65 sky130_fd_sc_hs__fa_1_3/B sky130_fd_sc_hs__fa_1_4/a_501_75# 0
C66 sky130_fd_sc_hs__fa_1_5/B sky130_fd_sc_hs__fa_1_6/SUM 0.00221f
C67 sky130_fd_sc_hs__fa_1_5/B sky130_fd_sc_hs__fa_1_5/a_318_389# 0
C68 a_2569_369# sky130_fd_sc_hs__fa_1_6/CIN 0
C69 a_304_417# B 0
C70 sky130_fd_sc_hs__fa_1_5/B sky130_fd_sc_hs__fa_1_2/a_501_75# 0
C71 sky130_fd_sc_hs__fa_1_3/A sky130_fd_sc_hs__fa_1_4/a_501_75# 0
C72 SUM B -0.00195f
C73 CIN sky130_fd_sc_hs__fa_1_7/COUT 0.05099f
C74 sky130_fd_sc_hs__fa_1_4/CIN sky130_fd_sc_hs__fa_1_4/a_916_347# 0
C75 sky130_fd_sc_hs__fa_1_4/A sky130_fd_sc_hs__fa_1_4/a_1107_347# -0.00148f
C76 sky130_fd_sc_hs__fa_1_5/B sky130_fd_sc_hs__fa_1_6/a_509_347# 0
C77 sky130_fd_sc_hs__fa_1_4/A sky130_fd_sc_hs__fa_1_3/a_509_347# 0
C78 sky130_fd_sc_hs__fa_1_4/CIN sky130_fd_sc_hs__fa_1_3/a_465_249# 0.0144f
C79 sky130_fd_sc_hs__fa_1_5/a_509_347# sky130_fd_sc_hs__fa_1_6/a_69_260# 0
C80 sky130_fd_sc_hs__fa_1_7/a_465_249# sky130_fd_sc_hs__fa_1_6/A 0
C81 sky130_fd_sc_hs__fa_1_7/CIN sky130_fd_sc_hs__fa_1_6/CIN -0
C82 a_2569_369# sky130_fd_sc_hs__fa_1_6/A 0
C83 a_223_103# a_70_620# -0
C84 sky130_fd_sc_hs__fa_1_7/VPB sky130_fd_sc_hs__fa_1_7/a_465_249# 0
C85 sky130_fd_sc_hs__fa_1_7/B sky130_fd_sc_hs__fa_1_7/a_318_389# 0
C86 CIN sky130_fd_sc_hs__fa_1_2/a_318_389# 0
C87 a_1086_103# A 0.00667f
C88 sky130_fd_sc_hs__fa_1_7/CIN sky130_fd_sc_hs__fa_1_7/a_509_347# 0
C89 a_3160_97# sky130_fd_sc_hs__fa_1_6/a_465_249# 0
C90 sky130_fd_sc_hs__fa_1_7/CIN sky130_fd_sc_hs__fa_1_6/A 0.01002f
C91 sky130_fd_sc_hs__fa_1_4/a_69_260# sky130_fd_sc_hs__fa_1_4/B -0.00296f
C92 sky130_fd_sc_hs__fa_1_6/B B 0.00169f
C93 sky130_fd_sc_hs__fa_1_3/a_1100_75# sky130_fd_sc_hs__fa_1_3/B 0.00158f
C94 sky130_fd_sc_hs__fa_1_7/CIN sky130_fd_sc_hs__fa_1_7/VPB 0.01073f
C95 sky130_fd_sc_hs__fa_1_7/A sky130_fd_sc_hs__fa_1_7/B -0.01236f
C96 CIN sky130_fd_sc_hs__fa_1_5/CIN 0
C97 sky130_fd_sc_hs__fa_1_3/a_936_75# sky130_fd_sc_hs__fa_1_3/CIN -0
C98 sky130_fd_sc_hs__fa_1_3/a_1100_75# sky130_fd_sc_hs__fa_1_3/A 0.00678f
C99 A sky130_fd_sc_hs__fa_1_7/COUT 0.00246f
C100 sky130_fd_sc_hs__fa_1_3/a_237_75# sky130_fd_sc_hs__fa_1_3/B -0
C101 sky130_fd_sc_hs__fa_1_5/SUM sky130_fd_sc_hs__fa_1_4/VPB 0.00231f
C102 sky130_fd_sc_hs__fa_1_6/VPB B 0
C103 CIN a_2378_411# -0
C104 sky130_fd_sc_hs__fa_1_3/a_237_75# sky130_fd_sc_hs__fa_1_3/A 0
C105 sky130_fd_sc_hs__fa_1_6/B sky130_fd_sc_hs__fa_1_6/a_1100_75# 0.00147f
C106 sky130_fd_sc_hs__fa_1_4/a_465_249# sky130_fd_sc_hs__fa_1_5/a_465_249# 0
C107 sky130_fd_sc_hs__fa_1_3/a_217_368# sky130_fd_sc_hs__fa_1_3/B 0
C108 sky130_fd_sc_hs__fa_1_5/B sky130_fd_sc_hs__fa_1_6/a_217_368# 0
C109 sky130_fd_sc_hs__fa_1_5/A sky130_fd_sc_hs__fa_1_2/VPB 0
C110 sky130_fd_sc_hs__fa_1_7/COUT sky130_fd_sc_hs__fa_1_7/a_936_75# 0
C111 sky130_fd_sc_hs__fa_1_7/B sky130_fd_sc_hs__fa_1_7/SUM -0.0015f
C112 sky130_fd_sc_hs__fa_1_3/a_217_368# sky130_fd_sc_hs__fa_1_3/A -0.0017f
C113 a_2569_369# sky130_fd_sc_hs__fa_1_2/A 0
C114 sky130_fd_sc_hs__fa_1_7/a_465_249# B 0
C115 a_2569_369# B 0.00176f
C116 sky130_fd_sc_hs__fa_1_4/A sky130_fd_sc_hs__fa_1_3/VPB 0
C117 VPB a_2144_614# 0
C118 sky130_fd_sc_hs__fa_1_7/CIN sky130_fd_sc_hs__fa_1_7/a_315_75# 0
C119 sky130_fd_sc_hs__fa_1_7/CIN B 0.00168f
C120 sky130_fd_sc_hs__fa_1_4/VPB sky130_fd_sc_hs__fa_1_4/B 0.02021f
C121 CIN a_2561_97# 0
C122 sky130_fd_sc_hs__fa_1_5/CIN sky130_fd_sc_hs__fa_1_5/a_936_75# -0
C123 sky130_fd_sc_hs__inv_2_0/a_30_74# sky130_fd_sc_hs__fa_1_7/VPB 0
C124 CIN sky130_fd_sc_hs__fa_1_7/B 0.00167f
C125 sky130_fd_sc_hs__fa_1_6/A sky130_fd_sc_hs__fa_1_6/CIN 0.10742f
C126 a_1086_103# a_465_575# -0
C127 sky130_fd_sc_hs__fa_1_4/A sky130_fd_sc_hs__fa_1_5/a_501_75# 0
C128 sky130_fd_sc_hs__fa_1_2/a_217_368# sky130_fd_sc_hs__fa_1_2/A -0.0017f
C129 sky130_fd_sc_hs__fa_1_6/B sky130_fd_sc_hs__fa_1_6/a_916_347# 0.00172f
C130 sky130_fd_sc_hs__fa_1_2/a_217_368# B 0
C131 sky130_fd_sc_hs__fa_1_3/a_69_260# sky130_fd_sc_hs__fa_1_4/B 0
C132 sky130_fd_sc_hs__fa_1_2/a_237_75# CIN 0.00131f
C133 sky130_fd_sc_hs__fa_1_3/CIN sky130_fd_sc_hs__fa_1_4/a_501_75# 0
C134 sky130_fd_sc_hs__fa_1_2/a_69_260# a_3167_369# 0
C135 SUM a_70_620# 0
C136 sky130_fd_sc_hs__fa_1_7/a_509_347# sky130_fd_sc_hs__fa_1_6/A 0
C137 sky130_fd_sc_hs__fa_1_6/B sky130_fd_sc_hs__fa_1_5/a_465_249# 0
C138 sky130_fd_sc_hs__fa_1_7/A sky130_fd_sc_hs__fa_1_7/a_69_260# -0.00165f
C139 sky130_fd_sc_hs__fa_1_5/a_1100_75# sky130_fd_sc_hs__fa_1_4/a_465_249# 0
C140 sky130_fd_sc_hs__fa_1_4/CIN sky130_fd_sc_hs__fa_1_4/a_1107_347# 0
C141 sky130_fd_sc_hs__fa_1_4/A sky130_fd_sc_hs__fa_1_4/a_237_75# 0
C142 sky130_fd_sc_hs__fa_1_4/CIN sky130_fd_sc_hs__fa_1_3/a_509_347# 0
C143 sky130_fd_sc_hs__fa_1_7/VPB sky130_fd_sc_hs__fa_1_6/A 0
C144 sky130_fd_sc_hs__fa_1_3/a_69_260# sky130_fd_sc_hs__fa_1_2/A 0
C145 sky130_fd_sc_hs__fa_1_5/VPB CIN 0
C146 sky130_fd_sc_hs__fa_1_7/A sky130_fd_sc_hs__fa_1_7/a_501_75# 0.00679f
C147 sky130_fd_sc_hs__fa_1_6/VPB sky130_fd_sc_hs__fa_1_5/a_465_249# 0
C148 a_2561_97# A 0.0075f
C149 SUM sky130_fd_sc_hs__fa_1_6/a_465_249# 0
C150 a_2277_390# B 0
C151 A sky130_fd_sc_hs__fa_1_7/B 0.00324f
C152 VPB sky130_fd_sc_hs__fa_1_7/A 0
C153 sky130_fd_sc_hs__fa_1_5/A sky130_fd_sc_hs__fa_1_4/a_465_249# 0
C154 a_487_103# sky130_fd_sc_hs__fa_1_7/A 0
C155 sky130_fd_sc_hs__fa_1_4/A sky130_fd_sc_hs__fa_1_4/a_217_368# -0.0017f
C156 sky130_fd_sc_hs__fa_1_2/a_465_249# sky130_fd_sc_hs__fa_1_3/a_69_260# 0.00491f
C157 sky130_fd_sc_hs__fa_1_7/B sky130_fd_sc_hs__fa_1_7/a_217_368# 0
C158 sky130_fd_sc_hs__fa_1_2/a_237_75# A 0
C159 sky130_fd_sc_hs__fa_1_7/A sky130_fd_sc_hs__fa_1_7/a_1107_347# -0.00167f
C160 CIN a_3167_369# 0
C161 sky130_fd_sc_hs__fa_1_2/a_69_260# VPB 0
C162 sky130_fd_sc_hs__fa_1_5/SUM sky130_fd_sc_hs__fa_1_4/B 0
C163 sky130_fd_sc_hs__fa_1_6/CIN B 0.00168f
C164 sky130_fd_sc_hs__fa_1_6/B sky130_fd_sc_hs__fa_1_6/a_465_249# 0.02188f
C165 sky130_fd_sc_hs__fa_1_3/a_237_75# sky130_fd_sc_hs__fa_1_3/CIN 0.00131f
C166 sky130_fd_sc_hs__fa_1_3/a_315_75# sky130_fd_sc_hs__fa_1_3/A 0
C167 sky130_fd_sc_hs__fa_1_2/a_217_368# sky130_fd_sc_hs__fa_1_2/B 0
C168 sky130_fd_sc_hs__fa_1_4/a_465_249# sky130_fd_sc_hs__fa_1_5/a_509_347# 0
C169 sky130_fd_sc_hs__fa_1_2/a_509_347# CIN 0
C170 sky130_fd_sc_hs__fa_1_7/a_509_347# B 0
C171 sky130_fd_sc_hs__fa_1_4/a_509_347# sky130_fd_sc_hs__fa_1_3/B 0
C172 sky130_fd_sc_hs__fa_1_6/A sky130_fd_sc_hs__fa_1_7/a_315_75# 0
C173 sky130_fd_sc_hs__fa_1_6/A B 0.00363f
C174 sky130_fd_sc_hs__fa_1_3/a_318_389# sky130_fd_sc_hs__fa_1_3/B 0
C175 sky130_fd_sc_hs__fa_1_5/VPB sky130_fd_sc_hs__fa_1_6/a_69_260# 0.00185f
C176 sky130_fd_sc_hs__fa_1_5/CIN sky130_fd_sc_hs__fa_1_2/VPB 0
C177 sky130_fd_sc_hs__fa_1_4/a_509_347# sky130_fd_sc_hs__fa_1_3/A 0
C178 sky130_fd_sc_hs__fa_1_7/B sky130_fd_sc_hs__fa_1_7/a_237_75# -0
C179 CIN sky130_fd_sc_hs__fa_1_5/a_1107_347# 0
C180 sky130_fd_sc_hs__fa_1_3/a_217_368# sky130_fd_sc_hs__fa_1_3/CIN 0.00471f
C181 sky130_fd_sc_hs__fa_1_7/VPB B 0
C182 sky130_fd_sc_hs__fa_1_7/a_465_249# a_70_620# 0
C183 sky130_fd_sc_hs__fa_1_3/a_69_260# sky130_fd_sc_hs__fa_1_2/B 0.0014f
C184 sky130_fd_sc_hs__fa_1_4/A sky130_fd_sc_hs__fa_1_3/B 0.00331f
C185 sky130_fd_sc_hs__fa_1_4/CIN sky130_fd_sc_hs__fa_1_3/VPB 0.00593f
C186 sky130_fd_sc_hs__fa_1_3/a_69_260# sky130_fd_sc_hs__fa_1_2/a_1100_75# 0
C187 sky130_fd_sc_hs__fa_1_5/CIN sky130_fd_sc_hs__fa_1_3/CIN 0.01268f
C188 CIN sky130_fd_sc_hs__fa_1_7/a_501_75# 0
C189 sky130_fd_sc_hs__fa_1_5/A sky130_fd_sc_hs__fa_1_6/a_315_75# 0
C190 sky130_fd_sc_hs__fa_1_2/a_1107_347# sky130_fd_sc_hs__fa_1_2/A -0.00143f
C191 a_3167_369# A -0.00158f
C192 sky130_fd_sc_hs__fa_1_6/B sky130_fd_sc_hs__fa_1_5/A 0
C193 sky130_fd_sc_hs__fa_1_2/a_465_249# sky130_fd_sc_hs__fa_1_5/SUM 0
C194 sky130_fd_sc_hs__fa_1_5/B sky130_fd_sc_hs__fa_1_2/a_69_260# 0
C195 sky130_fd_sc_hs__fa_1_4/A sky130_fd_sc_hs__fa_1_3/A 0.24913f
C196 CIN VPB 0.03161f
C197 sky130_fd_sc_hs__fa_1_6/A sky130_fd_sc_hs__fa_1_6/a_1100_75# 0.00678f
C198 sky130_fd_sc_hs__fa_1_2/a_509_347# a_3674_614# 0
C199 CIN a_487_103# 0
C200 CIN sky130_fd_sc_hs__fa_1_7/a_1107_347# 0
C201 CIN sky130_fd_sc_hs__fa_1_2/SUM 0.08723f
C202 sky130_fd_sc_hs__fa_1_6/VPB sky130_fd_sc_hs__fa_1_5/A 0
C203 sky130_fd_sc_hs__fa_1_7/B a_465_575# 0
C204 sky130_fd_sc_hs__fa_1_4/a_465_249# sky130_fd_sc_hs__fa_1_3/a_1100_75# 0
C205 sky130_fd_sc_hs__fa_1_7/a_1100_75# B 0
C206 A sky130_fd_sc_hs__fa_1_7/a_69_260# 0
C207 sky130_fd_sc_hs__fa_1_3/B sky130_fd_sc_hs__fa_1_4/a_1100_75# 0
C208 sky130_fd_sc_hs__inv_2_0/w_n38_332# sky130_fd_sc_hs__inv_2_0/a_27_368# -0
C209 sky130_fd_sc_hs__fa_1_7/CIN sky130_fd_sc_hs__fa_1_6/a_465_249# 0.00856f
C210 sky130_fd_sc_hs__fa_1_3/A sky130_fd_sc_hs__fa_1_4/a_1100_75# 0
C211 CIN sky130_fd_sc_hs__fa_1_6/a_1107_347# 0
C212 A sky130_fd_sc_hs__fa_1_7/a_501_75# 0
C213 sky130_fd_sc_hs__fa_1_4/CIN sky130_fd_sc_hs__fa_1_4/a_237_75# 0.002f
C214 B sky130_fd_sc_hs__fa_1_2/A 0
C215 sky130_fd_sc_hs__fa_1_5/a_1107_347# sky130_fd_sc_hs__fa_1_6/a_69_260# 0
C216 sky130_fd_sc_hs__fa_1_3/a_501_75# sky130_fd_sc_hs__fa_1_4/B 0
C217 VPB a_3674_614# -0
C218 sky130_fd_sc_hs__fa_1_6/CIN sky130_fd_sc_hs__fa_1_6/a_916_347# 0
C219 VPB A -0.0079f
C220 sky130_fd_sc_hs__fa_1_5/B CIN 0.00176f
C221 a_495_375# sky130_fd_sc_hs__fa_1_7/A 0