* NGSPICE file created from tt_um_ohmy90_ringOscillator.ext - technology: sky130B

.subckt sky130_fd_sc_hs__fa_1 A B CIN VGND VNB VPB VPWR COUT SUM a_1100_75# a_1107_347#
+ a_318_389# a_315_75# a_916_347# a_69_260# a_936_75# a_465_249# a_237_75# a_501_75#
+ a_509_347# a_217_368#
X0 a_465_249# B a_936_75# VNB sky130_fd_pr__nfet_01v8_lvt ad=0.0896 pd=0.92 as=0.0768 ps=0.88 w=0.64 l=0.15
**devattr s=3072,176 d=3584,184
X1 a_501_75# A VGND VNB sky130_fd_pr__nfet_01v8_lvt ad=0.1024 pd=0.96 as=0.17812 ps=1.33584 w=0.64 l=0.15
**devattr s=6763,255 d=3584,184
X2 a_318_389# B a_217_368# VPB sky130_fd_pr__pfet_01v8 ad=0.19588 pd=1.565 as=0.18669 ps=1.46 w=1 l=0.15
**devattr s=7467,292 d=7835,313
X3 VPWR CIN a_509_347# VPB sky130_fd_pr__pfet_01v8 ad=0.24067 pd=1.64719 as=0.1725 ps=1.345 w=1 l=0.15
**devattr s=7100,271 d=6200,262
X4 a_69_260# CIN a_315_75# VNB sky130_fd_pr__nfet_01v8_lvt ad=0.1248 pd=1.03 as=0.0768 ps=0.88 w=0.64 l=0.15
**devattr s=3072,176 d=4992,206
X5 a_501_75# a_465_249# a_69_260# VNB sky130_fd_pr__nfet_01v8_lvt ad=0.1024 pd=0.96 as=0.1248 ps=1.03 w=0.64 l=0.15
**devattr s=4992,206 d=4608,200
X6 VGND A a_1100_75# VNB sky130_fd_pr__nfet_01v8_lvt ad=0.17812 pd=1.33584 as=0.29627 ps=1.75667 w=0.64 l=0.15
**devattr s=14384,346 d=8491,282
X7 VGND a_69_260# SUM VNB sky130_fd_pr__nfet_01v8_lvt ad=0.20595 pd=1.54456 as=0.2109 ps=2.05 w=0.74 l=0.15
**devattr s=8436,410 d=7663,279
X8 VGND CIN a_501_75# VNB sky130_fd_pr__nfet_01v8_lvt ad=0.17812 pd=1.33584 as=0.1024 ps=0.96 w=0.64 l=0.15
**devattr s=3584,184 d=6336,227
X9 a_237_75# A VGND VNB sky130_fd_pr__nfet_01v8_lvt ad=0.0768 pd=0.88 as=0.17812 ps=1.33584 w=0.64 l=0.15
**devattr s=7663,279 d=3072,176
X10 a_509_347# A VPWR VPB sky130_fd_pr__pfet_01v8 ad=0.1725 pd=1.345 as=0.24067 ps=1.64719 w=1 l=0.15
**devattr s=9745,328 d=7100,271
X11 COUT a_465_249# VPWR VPB sky130_fd_pr__pfet_01v8 ad=0.3192 pd=2.81 as=0.26955 ps=1.84485 w=1.12 l=0.15
**devattr s=13216,566 d=12768,562
X12 a_465_249# B a_916_347# VPB sky130_fd_pr__pfet_01v8 ad=0.15 pd=1.3 as=0.1775 ps=1.355 w=1 l=0.15
**devattr s=7100,271 d=6000,260
X13 a_1107_347# CIN a_465_249# VPB sky130_fd_pr__pfet_01v8 ad=0.26 pd=1.85333 as=0.15 ps=1.3 w=1 l=0.15
**devattr s=6000,260 d=8900,289
X14 VPWR A a_1107_347# VPB sky130_fd_pr__pfet_01v8 ad=0.24067 pd=1.64719 as=0.26 ps=1.85333 w=1 l=0.15
**devattr s=8900,289 d=13962,352
X15 COUT a_465_249# VGND VNB sky130_fd_pr__nfet_01v8_lvt ad=0.1998 pd=2.02 as=0.20595 ps=1.54456 w=0.74 l=0.15
**devattr s=7844,402 d=7992,404
X16 a_1100_75# B VGND VNB sky130_fd_pr__nfet_01v8_lvt ad=0.29627 pd=1.75667 as=0.17812 ps=1.33584 w=0.64 l=0.15
**devattr s=8491,282 d=6784,362
X17 a_509_347# a_465_249# a_69_260# VPB sky130_fd_pr__pfet_01v8 ad=0.1725 pd=1.345 as=0.15 ps=1.3 w=1 l=0.15
**devattr s=6000,260 d=6700,267
X18 a_217_368# A VPWR VPB sky130_fd_pr__pfet_01v8 ad=0.18669 pd=1.46 as=0.24067 ps=1.64719 w=1 l=0.15
**devattr s=7960,297 d=7467,292
X19 a_916_347# A VPWR VPB sky130_fd_pr__pfet_01v8 ad=0.1775 pd=1.355 as=0.24067 ps=1.64719 w=1 l=0.15
**devattr s=6200,262 d=7100,271
X20 a_936_75# A VGND VNB sky130_fd_pr__nfet_01v8_lvt ad=0.0768 pd=0.88 as=0.17812 ps=1.33584 w=0.64 l=0.15
**devattr s=6336,227 d=3072,176
X21 a_69_260# CIN a_318_389# VPB sky130_fd_pr__pfet_01v8 ad=0.15 pd=1.3 as=0.19588 ps=1.565 w=1 l=0.15
**devattr s=7835,313 d=6000,260
X22 a_1100_75# CIN a_465_249# VNB sky130_fd_pr__nfet_01v8_lvt ad=0.29627 pd=1.75667 as=0.0896 ps=0.92 w=0.64 l=0.15
**devattr s=3584,184 d=14384,346
X23 VPWR a_69_260# SUM VPB sky130_fd_pr__pfet_01v8 ad=0.26955 pd=1.84485 as=0.3192 ps=2.81 w=1.12 l=0.15
**devattr s=12768,562 d=7960,297
X24 VPWR B a_509_347# VPB sky130_fd_pr__pfet_01v8 ad=0.24067 pd=1.64719 as=0.1725 ps=1.345 w=1 l=0.15
**devattr s=6700,267 d=9745,328
X25 a_1107_347# B VPWR VPB sky130_fd_pr__pfet_01v8 ad=0.26 pd=1.85333 as=0.24067 ps=1.64719 w=1 l=0.15
**devattr s=13962,352 d=13400,534
X26 a_315_75# B a_237_75# VNB sky130_fd_pr__nfet_01v8_lvt ad=0.0768 pd=0.88 as=0.0768 ps=0.88 w=0.64 l=0.15
**devattr s=3072,176 d=3072,176
X27 VGND B a_501_75# VNB sky130_fd_pr__nfet_01v8_lvt ad=0.17812 pd=1.33584 as=0.1024 ps=0.96 w=0.64 l=0.15
**devattr s=4608,200 d=6763,255
C0 A a_315_75# 0.00252f
C1 VGND A 0.13151f
C2 VPWR a_69_260# 0.1278f
C3 a_501_75# CIN 0.01116f
C4 a_916_347# CIN 0.0061f
C5 VPWR VPB 0.24573f
C6 a_1100_75# a_936_75# 0
C7 a_237_75# VPWR 0
C8 VGND a_1100_75# 0.25139f
C9 VGND VPWR 0.08465f
C10 B A 0.26846f
C11 a_1107_347# CIN 0.00192f
C12 a_465_249# COUT 0.06928f
C13 a_501_75# A 0.1337f
C14 a_465_249# a_509_347# 0.1366f
C15 a_916_347# A 0.0016f
C16 a_1100_75# B 0.01175f
C17 B VPWR 0.21956f
C18 VPB a_69_260# 0.04981f
C19 a_237_75# a_69_260# 0.00693f
C20 a_936_75# a_69_260# 0
C21 a_69_260# a_315_75# 0.00702f
C22 VGND a_69_260# 0.15999f
C23 a_1107_347# A 0.01477f
C24 a_916_347# VPWR 0.01147f
C25 VGND VPB 0.01302f
C26 a_465_249# CIN 0.29824f
C27 COUT CIN 0
C28 VGND a_237_75# 0.00252f
C29 VGND a_936_75# 0.0076f
C30 a_509_347# CIN 0.02394f
C31 VGND a_315_75# 0.00207f
C32 a_1107_347# VPWR 0.21905f
C33 B a_69_260# 0.03966f
C34 SUM CIN 0
C35 B VPB 0.62725f
C36 a_501_75# a_69_260# 0.02578f
C37 a_318_389# a_465_249# 0
C38 a_465_249# A 0.35643f
C39 VGND B 0.04033f
C40 A COUT 0
C41 a_509_347# A 0.01252f
C42 a_501_75# a_936_75# 0
C43 VGND a_501_75# 0.14715f
C44 a_465_249# a_1100_75# 0.21113f
C45 a_465_249# VPWR 0.19408f
C46 a_1100_75# COUT 0.00223f
C47 SUM A 0
C48 COUT VPWR 0.12179f
C49 a_1107_347# VPB 0.01475f
C50 a_509_347# VPWR 0.1543f
C51 a_318_389# CIN 0.00717f
C52 VGND a_1107_347# 0.00417f
C53 B a_501_75# 0.00904f
C54 A CIN 0.46738f
C55 a_217_368# A 0
C56 SUM VPWR 0.10504f
C57 a_1100_75# CIN 0.00368f
C58 a_465_249# a_69_260# 0.03228f
C59 VPWR CIN 0.13494f
C60 a_1107_347# B 0.06557f
C61 a_217_368# VPWR 0.01541f
C62 a_509_347# a_69_260# 0.0624f
C63 a_465_249# VPB 0.10732f
C64 COUT VPB 0.01419f
C65 a_509_347# VPB 0.00536f
C66 a_465_249# a_237_75# 0
C67 a_465_249# a_936_75# 0.00268f
C68 a_465_249# a_315_75# 0
C69 VGND a_465_249# 0.12651f
C70 SUM a_69_260# 0.12447f
C71 VGND COUT 0.07419f
C72 a_318_389# VPWR 0.01234f
C73 a_1100_75# A 0.01955f
C74 SUM VPB 0.01283f
C75 A VPWR 0.04912f
C76 SUM a_237_75# 0
C77 CIN a_69_260# 0.10678f
C78 a_217_368# a_69_260# 0.01644f
C79 SUM a_315_75# 0
C80 VGND SUM 0.0376f
C81 a_465_249# B 0.27222f
C82 CIN VPB 0.12323f
C83 B COUT 0.00688f
C84 a_509_347# B 0.02783f
C85 a_1100_75# VPWR 0.00321f
C86 a_936_75# CIN 0.00177f
C87 a_465_249# a_501_75# 0.00555f
C88 CIN a_315_75# 0.00121f
C89 VGND CIN 0.13789f
C90 VGND a_217_368# 0.0017f
C91 a_916_347# a_465_249# 0.0195f
C92 a_318_389# a_69_260# 0.02061f
C93 a_916_347# a_509_347# 0
C94 SUM B 0
C95 A a_69_260# 0.27191f
C96 a_465_249# a_1107_347# 0.15034f
C97 A VPB 0.14325f
C98 a_1107_347# COUT 0
C99 B CIN 0.19591f
C100 A a_237_75# 0.00252f
C101 a_936_75# A 0.00492f
C102 a_1100_75# a_69_260# 0
C103 VGND VNB 0.99802f
C104 COUT VNB 0.11284f
C105 CIN VNB 0.31573f
C106 A VNB 0.49885f
C107 VPWR VNB 0.79012f
C108 SUM VNB 0.11694f
C109 B VNB 0.61239f
C110 VPB VNB 2.08861f
C111 a_1100_75# VNB 0.01137f
C112 a_501_75# VNB 0.00504f
C113 a_1107_347# VNB 0.00204f
C114 a_509_347# VNB 0.00129f
C115 a_465_249# VNB 0.30402f
C116 a_69_260# VNB 0.15472f
.ends

.subckt sky130_fd_sc_hd__inv_8 a_60_47# w_n38_261# a_60_297# a_112_21# a_142_47# VSUBS
X0 a_60_297# a_112_21# a_142_47# w_n38_261# sky130_fd_pr__pfet_01v8_hvt ad=0.16625 pd=1.5825 as=0.135 ps=1.27 w=1 l=0.15
**devattr s=5400,254 d=5400,254
X1 a_142_47# a_112_21# a_60_297# w_n38_261# sky130_fd_pr__pfet_01v8_hvt ad=0.135 pd=1.27 as=0.16625 ps=1.5825 w=1 l=0.15
**devattr s=5400,254 d=5400,254
X2 a_142_47# a_112_21# a_60_47# VSUBS sky130_fd_pr__nfet_01v8 ad=0.08775 pd=0.92 as=0.10806 ps=1.145 w=0.65 l=0.15
**devattr s=3510,184 d=3510,184
X3 a_142_47# a_112_21# a_60_47# VSUBS sky130_fd_pr__nfet_01v8 ad=0.08775 pd=0.92 as=0.10806 ps=1.145 w=0.65 l=0.15
**devattr s=3510,184 d=3510,184
X4 a_60_297# a_112_21# a_142_47# w_n38_261# sky130_fd_pr__pfet_01v8_hvt ad=0.16625 pd=1.5825 as=0.135 ps=1.27 w=1 l=0.15
**devattr s=5400,254 d=5400,254
X5 a_142_47# a_112_21# a_60_297# w_n38_261# sky130_fd_pr__pfet_01v8_hvt ad=0.135 pd=1.27 as=0.16625 ps=1.5825 w=1 l=0.15
**devattr s=10400,504 d=5400,254
X6 a_142_47# a_112_21# a_60_47# VSUBS sky130_fd_pr__nfet_01v8 ad=0.08775 pd=0.92 as=0.10806 ps=1.145 w=0.65 l=0.15
**devattr s=6760,364 d=3510,184
X7 a_60_297# a_112_21# a_142_47# w_n38_261# sky130_fd_pr__pfet_01v8_hvt ad=0.16625 pd=1.5825 as=0.135 ps=1.27 w=1 l=0.15
**devattr s=5400,254 d=10400,504
X8 a_142_47# a_112_21# a_60_47# VSUBS sky130_fd_pr__nfet_01v8 ad=0.08775 pd=0.92 as=0.10806 ps=1.145 w=0.65 l=0.15
**devattr s=3510,184 d=3510,184
X9 a_142_47# a_112_21# a_60_297# w_n38_261# sky130_fd_pr__pfet_01v8_hvt ad=0.135 pd=1.27 as=0.16625 ps=1.5825 w=1 l=0.15
**devattr s=5400,254 d=5400,254
X10 a_60_297# a_112_21# a_142_47# w_n38_261# sky130_fd_pr__pfet_01v8_hvt ad=0.16625 pd=1.5825 as=0.135 ps=1.27 w=1 l=0.15
**devattr s=5400,254 d=5400,254
X11 a_60_47# a_112_21# a_142_47# VSUBS sky130_fd_pr__nfet_01v8 ad=0.10806 pd=1.145 as=0.08775 ps=0.92 w=0.65 l=0.15
**devattr s=3510,184 d=3510,184
X12 a_60_47# a_112_21# a_142_47# VSUBS sky130_fd_pr__nfet_01v8 ad=0.10806 pd=1.145 as=0.08775 ps=0.92 w=0.65 l=0.15
**devattr s=3510,184 d=3510,184
X13 a_60_47# a_112_21# a_142_47# VSUBS sky130_fd_pr__nfet_01v8 ad=0.10806 pd=1.145 as=0.08775 ps=0.92 w=0.65 l=0.15
**devattr s=3510,184 d=3510,184
X14 a_142_47# a_112_21# a_60_297# w_n38_261# sky130_fd_pr__pfet_01v8_hvt ad=0.135 pd=1.27 as=0.16625 ps=1.5825 w=1 l=0.15
**devattr s=5400,254 d=5400,254
X15 a_60_47# a_112_21# a_142_47# VSUBS sky130_fd_pr__nfet_01v8 ad=0.10806 pd=1.145 as=0.08775 ps=0.92 w=0.65 l=0.15
**devattr s=3510,184 d=6760,364
C0 w_n38_261# a_60_47# 0.00793f
C1 a_60_47# a_142_47# 0.5745f
C2 w_n38_261# a_142_47# 0.03479f
C3 a_60_297# a_60_47# 0.08543f
C4 w_n38_261# a_60_297# 0.10021f
C5 a_60_47# a_112_21# 0.11686f
C6 a_60_297# a_142_47# 0.77995f
C7 w_n38_261# a_112_21# 0.25409f
C8 a_112_21# a_142_47# 0.82932f
C9 a_60_297# a_112_21# 0.12758f
C10 a_60_47# VSUBS 0.51049f
C11 a_142_47# VSUBS 0.12674f
C12 a_60_297# VSUBS 0.44991f
C13 a_112_21# VSUBS 0.77126f
C14 w_n38_261# VSUBS 0.87055f
.ends

.subckt sky130_fd_sc_hd__inv_12 a_60_47# w_n38_261# a_60_297# a_112_21# a_142_47#
+ VSUBS
X0 a_60_297# a_112_21# a_142_47# w_n38_261# sky130_fd_pr__pfet_01v8_hvt ad=0.17708 pd=1.52083 as=0.135 ps=1.27 w=1 l=0.15
**devattr s=5400,254 d=5400,254
X1 a_142_47# a_112_21# a_60_297# w_n38_261# sky130_fd_pr__pfet_01v8_hvt ad=0.135 pd=1.27 as=0.17708 ps=1.52083 w=1 l=0.15
**devattr s=5400,254 d=5400,254
X2 a_142_47# a_112_21# a_60_297# w_n38_261# sky130_fd_pr__pfet_01v8_hvt ad=0.135 pd=1.27 as=0.17708 ps=1.52083 w=1 l=0.15
**devattr s=5400,254 d=5400,254
X3 a_60_297# a_112_21# a_142_47# w_n38_261# sky130_fd_pr__pfet_01v8_hvt ad=0.17708 pd=1.52083 as=0.135 ps=1.27 w=1 l=0.15
**devattr s=5400,254 d=20600,606
X4 a_142_47# a_112_21# a_60_47# VSUBS sky130_fd_pr__nfet_01v8 ad=0.08775 pd=0.92 as=0.1151 ps=1.1125 w=0.65 l=0.15
**devattr s=3510,184 d=3510,184
X5 a_142_47# a_112_21# a_60_47# VSUBS sky130_fd_pr__nfet_01v8 ad=0.08775 pd=0.92 as=0.1151 ps=1.1125 w=0.65 l=0.15
**devattr s=3510,184 d=3510,184
X6 a_60_297# a_112_21# a_142_47# w_n38_261# sky130_fd_pr__pfet_01v8_hvt ad=0.17708 pd=1.52083 as=0.135 ps=1.27 w=1 l=0.15
**devattr s=5400,254 d=5400,254
X7 a_60_297# a_112_21# a_142_47# w_n38_261# sky130_fd_pr__pfet_01v8_hvt ad=0.17708 pd=1.52083 as=0.135 ps=1.27 w=1 l=0.15
**devattr s=5400,254 d=5400,254
X8 a_142_47# a_112_21# a_60_47# VSUBS sky130_fd_pr__nfet_01v8 ad=0.08775 pd=0.92 as=0.1151 ps=1.1125 w=0.65 l=0.15
**devattr s=3510,184 d=3510,184
X9 a_142_47# a_112_21# a_60_47# VSUBS sky130_fd_pr__nfet_01v8 ad=0.08775 pd=0.92 as=0.1151 ps=1.1125 w=0.65 l=0.15
**devattr s=3510,184 d=3510,184
X10 a_142_47# a_112_21# a_60_297# w_n38_261# sky130_fd_pr__pfet_01v8_hvt ad=0.135 pd=1.27 as=0.17708 ps=1.52083 w=1 l=0.15
**devattr s=5400,254 d=5400,254
X11 a_60_47# a_112_21# a_142_47# VSUBS sky130_fd_pr__nfet_01v8 ad=0.1151 pd=1.1125 as=0.08775 ps=0.92 w=0.65 l=0.15
**devattr s=3510,184 d=13390,466
X12 a_60_47# a_112_21# a_142_47# VSUBS sky130_fd_pr__nfet_01v8 ad=0.1151 pd=1.1125 as=0.08775 ps=0.92 w=0.65 l=0.15
**devattr s=3510,184 d=3510,184
X13 a_142_47# a_112_21# a_60_297# w_n38_261# sky130_fd_pr__pfet_01v8_hvt ad=0.135 pd=1.27 as=0.17708 ps=1.52083 w=1 l=0.15
**devattr s=10400,504 d=5400,254
X14 a_142_47# a_112_21# a_60_47# VSUBS sky130_fd_pr__nfet_01v8 ad=0.08775 pd=0.92 as=0.1151 ps=1.1125 w=0.65 l=0.15
**devattr s=6760,364 d=3510,184
X15 a_60_297# a_112_21# a_142_47# w_n38_261# sky130_fd_pr__pfet_01v8_hvt ad=0.17708 pd=1.52083 as=0.135 ps=1.27 w=1 l=0.15
**devattr s=5400,254 d=5400,254
X16 a_142_47# a_112_21# a_60_47# VSUBS sky130_fd_pr__nfet_01v8 ad=0.08775 pd=0.92 as=0.1151 ps=1.1125 w=0.65 l=0.15
**devattr s=3510,184 d=3510,184
X17 a_142_47# a_112_21# a_60_297# w_n38_261# sky130_fd_pr__pfet_01v8_hvt ad=0.135 pd=1.27 as=0.17708 ps=1.52083 w=1 l=0.15
**devattr s=5400,254 d=5400,254
X18 a_60_297# a_112_21# a_142_47# w_n38_261# sky130_fd_pr__pfet_01v8_hvt ad=0.17708 pd=1.52083 as=0.135 ps=1.27 w=1 l=0.15
**devattr s=5400,254 d=5400,254
X19 a_60_47# a_112_21# a_142_47# VSUBS sky130_fd_pr__nfet_01v8 ad=0.1151 pd=1.1125 as=0.08775 ps=0.92 w=0.65 l=0.15
**devattr s=3510,184 d=3510,184
X20 a_60_47# a_112_21# a_142_47# VSUBS sky130_fd_pr__nfet_01v8 ad=0.1151 pd=1.1125 as=0.08775 ps=0.92 w=0.65 l=0.15
**devattr s=3510,184 d=3510,184
X21 a_60_47# a_112_21# a_142_47# VSUBS sky130_fd_pr__nfet_01v8 ad=0.1151 pd=1.1125 as=0.08775 ps=0.92 w=0.65 l=0.15
**devattr s=3510,184 d=3510,184
X22 a_142_47# a_112_21# a_60_297# w_n38_261# sky130_fd_pr__pfet_01v8_hvt ad=0.135 pd=1.27 as=0.17708 ps=1.52083 w=1 l=0.15
**devattr s=5400,254 d=5400,254
X23 a_60_47# a_112_21# a_142_47# VSUBS sky130_fd_pr__nfet_01v8 ad=0.1151 pd=1.1125 as=0.08775 ps=0.92 w=0.65 l=0.15
**devattr s=3510,184 d=3510,184
C0 w_n38_261# a_60_47# 0.00933f
C1 a_60_47# a_142_47# 0.84337f
C2 w_n38_261# a_142_47# 0.04034f
C3 a_60_297# a_60_47# 0.12412f
C4 w_n38_261# a_60_297# 0.13063f
C5 a_60_47# a_112_21# 0.1674f
C6 a_60_297# a_142_47# 1.14598f
C7 w_n38_261# a_112_21# 0.38347f
C8 a_112_21# a_142_47# 1.26141f
C9 a_60_297# a_112_21# 0.18175f
C10 a_60_47# VSUBS 0.69459f
C11 a_142_47# VSUBS 0.13281f
C12 a_60_297# VSUBS 0.60586f
C13 a_112_21# VSUBS 1.13688f
C14 w_n38_261# VSUBS 1.22494f
.ends

.subckt sky130_fd_sc_hd__inv_6 a_37_47# w_n38_261# a_27_297# a_143_47# a_21_199# VSUBS
X0 a_27_297# a_21_199# a_143_47# w_n38_261# sky130_fd_pr__pfet_01v8_hvt ad=0.20667 pd=1.74667 as=0.135 ps=1.27 w=1 l=0.15
**devattr s=5400,254 d=10800,508
X1 a_143_47# a_21_199# a_27_297# w_n38_261# sky130_fd_pr__pfet_01v8_hvt ad=0.135 pd=1.27 as=0.20667 ps=1.74667 w=1 l=0.15
**devattr s=5400,254 d=5400,254
X2 a_143_47# a_21_199# a_37_47# VSUBS sky130_fd_pr__nfet_01v8 ad=0.08775 pd=0.92 as=0.12892 ps=1.26333 w=0.65 l=0.15
**devattr s=3510,184 d=3510,184
X3 a_27_297# a_21_199# a_143_47# w_n38_261# sky130_fd_pr__pfet_01v8_hvt ad=0.20667 pd=1.74667 as=0.135 ps=1.27 w=1 l=0.15
**devattr s=5400,254 d=5400,254
X4 a_143_47# a_21_199# a_27_297# w_n38_261# sky130_fd_pr__pfet_01v8_hvt ad=0.135 pd=1.27 as=0.20667 ps=1.74667 w=1 l=0.15
**devattr s=5400,254 d=5400,254
X5 a_27_297# a_21_199# a_143_47# w_n38_261# sky130_fd_pr__pfet_01v8_hvt ad=0.20667 pd=1.74667 as=0.135 ps=1.27 w=1 l=0.15
**devattr s=5400,254 d=5400,254
X6 a_143_47# a_21_199# a_37_47# VSUBS sky130_fd_pr__nfet_01v8 ad=0.08775 pd=0.92 as=0.12892 ps=1.26333 w=0.65 l=0.15
**devattr s=9880,412 d=3510,184
X7 a_143_47# a_21_199# a_37_47# VSUBS sky130_fd_pr__nfet_01v8 ad=0.08775 pd=0.92 as=0.12892 ps=1.26333 w=0.65 l=0.15
**devattr s=3510,184 d=3510,184
X8 a_143_47# a_21_199# a_27_297# w_n38_261# sky130_fd_pr__pfet_01v8_hvt ad=0.135 pd=1.27 as=0.20667 ps=1.74667 w=1 l=0.15
**devattr s=17200,572 d=5400,254
X9 a_37_47# a_21_199# a_143_47# VSUBS sky130_fd_pr__nfet_01v8 ad=0.12892 pd=1.26333 as=0.08775 ps=0.92 w=0.65 l=0.15
**devattr s=3510,184 d=3510,184
X10 a_37_47# a_21_199# a_143_47# VSUBS sky130_fd_pr__nfet_01v8 ad=0.12892 pd=1.26333 as=0.08775 ps=0.92 w=0.65 l=0.15
**devattr s=3510,184 d=3510,184
X11 a_37_47# a_21_199# a_143_47# VSUBS sky130_fd_pr__nfet_01v8 ad=0.12892 pd=1.26333 as=0.08775 ps=0.92 w=0.65 l=0.15
**devattr s=3510,184 d=7020,368
C0 w_n38_261# a_37_47# 0.00676f
C1 a_37_47# a_143_47# 0.32587f
C2 w_n38_261# a_143_47# 0.01838f
C3 a_27_297# a_37_47# 0.06953f
C4 w_n38_261# a_27_297# 0.07832f
C5 a_37_47# a_21_199# 0.1215f
C6 a_27_297# a_143_47# 0.53032f
C7 w_n38_261# a_21_199# 0.21261f
C8 a_21_199# a_143_47# 0.54356f
C9 a_27_297# a_21_199# 0.13608f
C10 a_37_47# VSUBS 0.42142f
C11 a_143_47# VSUBS 0.09005f
C12 a_27_297# VSUBS 0.37325f
C13 a_21_199# VSUBS 0.64634f
C14 w_n38_261# VSUBS 0.69336f
.ends

.subckt sky130_fd_sc_hd__inv_4 a_37_47# w_n38_261# a_37_297# a_119_47# a_21_199# VSUBS
X0 a_37_297# a_21_199# a_119_47# w_n38_261# sky130_fd_pr__pfet_01v8_hvt ad=0.1975 pd=1.895 as=0.135 ps=1.27 w=1 l=0.15
**devattr s=5400,254 d=10400,504
X1 a_119_47# a_21_199# a_37_297# w_n38_261# sky130_fd_pr__pfet_01v8_hvt ad=0.135 pd=1.27 as=0.1975 ps=1.895 w=1 l=0.15
**devattr s=5400,254 d=5400,254
X2 a_119_47# a_21_199# a_37_47# VSUBS sky130_fd_pr__nfet_01v8 ad=0.08775 pd=0.92 as=0.12837 ps=1.37 w=0.65 l=0.15
**devattr s=6760,364 d=3510,184
X3 a_37_297# a_21_199# a_119_47# w_n38_261# sky130_fd_pr__pfet_01v8_hvt ad=0.1975 pd=1.895 as=0.135 ps=1.27 w=1 l=0.15
**devattr s=5400,254 d=5400,254
X4 a_37_47# a_21_199# a_119_47# VSUBS sky130_fd_pr__nfet_01v8 ad=0.12837 pd=1.37 as=0.08775 ps=0.92 w=0.65 l=0.15
**devattr s=3510,184 d=3510,184
X5 a_119_47# a_21_199# a_37_297# w_n38_261# sky130_fd_pr__pfet_01v8_hvt ad=0.135 pd=1.27 as=0.1975 ps=1.895 w=1 l=0.15
**devattr s=10400,504 d=5400,254
X6 a_37_47# a_21_199# a_119_47# VSUBS sky130_fd_pr__nfet_01v8 ad=0.12837 pd=1.37 as=0.08775 ps=0.92 w=0.65 l=0.15
**devattr s=3510,184 d=6760,364
X7 a_119_47# a_21_199# a_37_47# VSUBS sky130_fd_pr__nfet_01v8 ad=0.08775 pd=0.92 as=0.12837 ps=1.37 w=0.65 l=0.15
**devattr s=3510,184 d=3510,184
C0 w_n38_261# a_37_47# 0.00667f
C1 a_37_47# a_119_47# 0.26259f
C2 w_n38_261# a_119_47# 0.0159f
C3 a_37_297# a_37_47# 0.05009f
C4 w_n38_261# a_37_297# 0.06539f
C5 a_37_47# a_21_199# 0.08191f
C6 a_37_297# a_119_47# 0.36178f
C7 w_n38_261# a_21_199# 0.14198f
C8 a_21_199# a_119_47# 0.35989f
C9 a_37_297# a_21_199# 0.09823f
C10 a_37_47# VSUBS 0.32682f
C11 a_119_47# VSUBS 0.08495f
C12 a_37_297# VSUBS 0.29639f
C13 a_21_199# VSUBS 0.45186f
C14 w_n38_261# VSUBS 0.51617f
.ends

.subckt sky130_fd_sc_hd__inv_2 w_n38_261# a_111_47# a_29_47# a_21_199# a_29_297# VSUBS
X0 a_111_47# a_21_199# a_29_297# w_n38_261# sky130_fd_pr__pfet_01v8_hvt ad=0.135 pd=1.27 as=0.26 ps=2.52 w=1 l=0.15
**devattr s=10400,504 d=5400,254
X1 a_29_47# a_21_199# a_111_47# VSUBS sky130_fd_pr__nfet_01v8 ad=0.169 pd=1.82 as=0.08775 ps=0.92 w=0.65 l=0.15
**devattr s=3510,184 d=6760,364
X2 a_111_47# a_21_199# a_29_47# VSUBS sky130_fd_pr__nfet_01v8 ad=0.08775 pd=0.92 as=0.169 ps=1.82 w=0.65 l=0.15
**devattr s=6760,364 d=3510,184
X3 a_29_297# a_21_199# a_111_47# w_n38_261# sky130_fd_pr__pfet_01v8_hvt ad=0.26 pd=2.52 as=0.135 ps=1.27 w=1 l=0.15
**devattr s=5400,254 d=10400,504
C0 w_n38_261# a_29_47# 0.00649f
C1 a_29_47# a_111_47# 0.1546f
C2 w_n38_261# a_111_47# 0.0061f
C3 a_29_297# a_29_47# 0.04227f
C4 w_n38_261# a_29_297# 0.05206f
C5 a_29_47# a_21_199# 0.06375f
C6 a_29_297# a_111_47# 0.2091f
C7 w_n38_261# a_21_199# 0.07418f
C8 a_21_199# a_111_47# 0.08939f
C9 a_29_297# a_21_199# 0.06305f
C10 a_29_47# VSUBS 0.26619f
C11 a_111_47# VSUBS 0.03316f
C12 a_29_297# VSUBS 0.24604f
C13 a_21_199# VSUBS 0.26281f
C14 w_n38_261# VSUBS 0.33898f
.ends

.subckt sky130_fd_sc_hs__inv_2 a_114_368# w_n38_332# a_27_368# a_30_74# a_21_260#
+ VSUBS
X0 a_114_368# a_21_260# a_30_74# VSUBS sky130_fd_pr__nfet_01v8_lvt ad=0.1036 pd=1.02 as=0.2109 ps=2.05 w=0.74 l=0.15
**devattr s=8436,410 d=4144,204
X1 a_27_368# a_21_260# a_114_368# w_n38_332# sky130_fd_pr__pfet_01v8 ad=0.3192 pd=2.81 as=0.168 ps=1.42 w=1.12 l=0.15
**devattr s=6720,284 d=12768,562
X2 a_30_74# a_21_260# a_114_368# VSUBS sky130_fd_pr__nfet_01v8_lvt ad=0.2109 pd=2.05 as=0.1036 ps=1.02 w=0.74 l=0.15
**devattr s=4144,204 d=8436,410
X3 a_114_368# a_21_260# a_27_368# w_n38_332# sky130_fd_pr__pfet_01v8 ad=0.168 pd=1.42 as=0.3192 ps=2.81 w=1.12 l=0.15
**devattr s=12768,562 d=6720,284
C0 w_n38_332# a_30_74# 0.00523f
C1 a_30_74# a_114_368# 0.16424f
C2 w_n38_332# a_114_368# 0.00641f
C3 a_27_368# a_30_74# 0.0376f
C4 w_n38_332# a_27_368# 0.06315f
C5 a_30_74# a_21_260# 0.06173f
C6 a_27_368# a_114_368# 0.21165f
C7 w_n38_332# a_21_260# 0.07759f
C8 a_21_260# a_114_368# 0.11388f
C9 a_27_368# a_21_260# 0.07533f
C10 a_30_74# VSUBS 0.30324f
C11 a_114_368# VSUBS 0.04146f
C12 a_27_368# VSUBS 0.26758f
C13 a_21_260# VSUBS 0.30548f
C14 w_n38_332# VSUBS 0.40622f
.ends

.subckt sky130_fd_sc_hd__inv_16 a_40_297# w_n38_261# a_40_47# a_26_199# a_122_47#
+ VSUBS
X0 a_122_47# a_26_199# a_40_297# w_n38_261# sky130_fd_pr__pfet_01v8_hvt ad=0.135 pd=1.27 as=0.15063 ps=1.42625 w=1 l=0.15
**devattr s=5400,254 d=5400,254
X1 a_40_297# a_26_199# a_122_47# w_n38_261# sky130_fd_pr__pfet_01v8_hvt ad=0.15063 pd=1.42625 as=0.135 ps=1.27 w=1 l=0.15
**devattr s=5400,254 d=10400,504
X2 a_40_47# a_26_199# a_122_47# VSUBS sky130_fd_pr__nfet_01v8 ad=0.09791 pd=1.0325 as=0.08775 ps=0.92 w=0.65 l=0.15
**devattr s=3510,184 d=3510,184
X3 a_122_47# a_26_199# a_40_297# w_n38_261# sky130_fd_pr__pfet_01v8_hvt ad=0.135 pd=1.27 as=0.15063 ps=1.42625 w=1 l=0.15
**devattr s=5400,254 d=5400,254
X4 a_40_47# a_26_199# a_122_47# VSUBS sky130_fd_pr__nfet_01v8 ad=0.09791 pd=1.0325 as=0.08775 ps=0.92 w=0.65 l=0.15
**devattr s=3510,184 d=3510,184
X5 a_40_47# a_26_199# a_122_47# VSUBS sky130_fd_pr__nfet_01v8 ad=0.09791 pd=1.0325 as=0.08775 ps=0.92 w=0.65 l=0.15
**devattr s=3510,184 d=3510,184
X6 a_122_47# a_26_199# a_40_297# w_n38_261# sky130_fd_pr__pfet_01v8_hvt ad=0.135 pd=1.27 as=0.15063 ps=1.42625 w=1 l=0.15
**devattr s=10400,504 d=5400,254
X7 a_40_47# a_26_199# a_122_47# VSUBS sky130_fd_pr__nfet_01v8 ad=0.09791 pd=1.0325 as=0.08775 ps=0.92 w=0.65 l=0.15
**devattr s=3510,184 d=6760,364
X8 a_40_297# a_26_199# a_122_47# w_n38_261# sky130_fd_pr__pfet_01v8_hvt ad=0.15063 pd=1.42625 as=0.135 ps=1.27 w=1 l=0.15
**devattr s=5400,254 d=5400,254
X9 a_122_47# a_26_199# a_40_47# VSUBS sky130_fd_pr__nfet_01v8 ad=0.08775 pd=0.92 as=0.09791 ps=1.0325 w=0.65 l=0.15
**devattr s=3510,184 d=3510,184
X10 a_40_297# a_26_199# a_122_47# w_n38_261# sky130_fd_pr__pfet_01v8_hvt ad=0.15063 pd=1.42625 as=0.135 ps=1.27 w=1 l=0.15
**devattr s=5400,254 d=5400,254
X11 a_122_47# a_26_199# a_40_47# VSUBS sky130_fd_pr__nfet_01v8 ad=0.08775 pd=0.92 as=0.09791 ps=1.0325 w=0.65 l=0.15
**devattr s=3510,184 d=3510,184
X12 a_122_47# a_26_199# a_40_297# w_n38_261# sky130_fd_pr__pfet_01v8_hvt ad=0.135 pd=1.27 as=0.15063 ps=1.42625 w=1 l=0.15
**devattr s=5400,254 d=5400,254
X13 a_40_297# a_26_199# a_122_47# w_n38_261# sky130_fd_pr__pfet_01v8_hvt ad=0.15063 pd=1.42625 as=0.135 ps=1.27 w=1 l=0.15
**devattr s=5400,254 d=5400,254
X14 a_122_47# a_26_199# a_40_297# w_n38_261# sky130_fd_pr__pfet_01v8_hvt ad=0.135 pd=1.27 as=0.15063 ps=1.42625 w=1 l=0.15
**devattr s=5400,254 d=5400,254
X15 a_40_47# a_26_199# a_122_47# VSUBS sky130_fd_pr__nfet_01v8 ad=0.09791 pd=1.0325 as=0.08775 ps=0.92 w=0.65 l=0.15
**devattr s=3510,184 d=3510,184
X16 a_122_47# a_26_199# a_40_47# VSUBS sky130_fd_pr__nfet_01v8 ad=0.08775 pd=0.92 as=0.09791 ps=1.0325 w=0.65 l=0.15
**devattr s=6760,364 d=3510,184
X17 a_40_47# a_26_199# a_122_47# VSUBS sky130_fd_pr__nfet_01v8 ad=0.09791 pd=1.0325 as=0.08775 ps=0.92 w=0.65 l=0.15
**devattr s=3510,184 d=3510,184
X18 a_40_47# a_26_199# a_122_47# VSUBS sky130_fd_pr__nfet_01v8 ad=0.09791 pd=1.0325 as=0.08775 ps=0.92 w=0.65 l=0.15
**devattr s=3510,184 d=3510,184
X19 a_122_47# a_26_199# a_40_297# w_n38_261# sky130_fd_pr__pfet_01v8_hvt ad=0.135 pd=1.27 as=0.15063 ps=1.42625 w=1 l=0.15
**devattr s=5400,254 d=5400,254
X20 a_40_47# a_26_199# a_122_47# VSUBS sky130_fd_pr__nfet_01v8 ad=0.09791 pd=1.0325 as=0.08775 ps=0.92 w=0.65 l=0.15
**devattr s=3510,184 d=3510,184
X21 a_122_47# a_26_199# a_40_297# w_n38_261# sky130_fd_pr__pfet_01v8_hvt ad=0.135 pd=1.27 as=0.15063 ps=1.42625 w=1 l=0.15
**devattr s=5400,254 d=5400,254
X22 a_40_297# a_26_199# a_122_47# w_n38_261# sky130_fd_pr__pfet_01v8_hvt ad=0.15063 pd=1.42625 as=0.135 ps=1.27 w=1 l=0.15
**devattr s=5400,254 d=5400,254
X23 a_40_297# a_26_199# a_122_47# w_n38_261# sky130_fd_pr__pfet_01v8_hvt ad=0.15063 pd=1.42625 as=0.135 ps=1.27 w=1 l=0.15
**devattr s=5400,254 d=5400,254
X24 a_40_297# a_26_199# a_122_47# w_n38_261# sky130_fd_pr__pfet_01v8_hvt ad=0.15063 pd=1.42625 as=0.135 ps=1.27 w=1 l=0.15
**devattr s=5400,254 d=5400,254
X25 a_122_47# a_26_199# a_40_47# VSUBS sky130_fd_pr__nfet_01v8 ad=0.08775 pd=0.92 as=0.09791 ps=1.0325 w=0.65 l=0.15
**devattr s=3510,184 d=3510,184
X26 a_122_47# a_26_199# a_40_297# w_n38_261# sky130_fd_pr__pfet_01v8_hvt ad=0.135 pd=1.27 as=0.15063 ps=1.42625 w=1 l=0.15
**devattr s=5400,254 d=5400,254
X27 a_122_47# a_26_199# a_40_47# VSUBS sky130_fd_pr__nfet_01v8 ad=0.08775 pd=0.92 as=0.09791 ps=1.0325 w=0.65 l=0.15
**devattr s=3510,184 d=3510,184
X28 a_122_47# a_26_199# a_40_47# VSUBS sky130_fd_pr__nfet_01v8 ad=0.08775 pd=0.92 as=0.09791 ps=1.0325 w=0.65 l=0.15
**devattr s=3510,184 d=3510,184
X29 a_122_47# a_26_199# a_40_47# VSUBS sky130_fd_pr__nfet_01v8 ad=0.08775 pd=0.92 as=0.09791 ps=1.0325 w=0.65 l=0.15
**devattr s=3510,184 d=3510,184
X30 a_40_297# a_26_199# a_122_47# w_n38_261# sky130_fd_pr__pfet_01v8_hvt ad=0.15063 pd=1.42625 as=0.135 ps=1.27 w=1 l=0.15
**devattr s=5400,254 d=5400,254
X31 a_122_47# a_26_199# a_40_47# VSUBS sky130_fd_pr__nfet_01v8 ad=0.08775 pd=0.92 as=0.09791 ps=1.0325 w=0.65 l=0.15
**devattr s=3510,184 d=3510,184
C0 w_n38_261# a_40_47# 0.01319f
C1 a_40_47# a_122_47# 1.06261f
C2 w_n38_261# a_122_47# 0.03049f
C3 a_40_297# a_40_47# 0.16076f
C4 w_n38_261# a_40_297# 0.15932f
C5 a_40_47# a_26_199# 0.26587f
C6 a_40_297# a_122_47# 1.46621f
C7 w_n38_261# a_26_199# 0.52574f
C8 a_26_199# a_122_47# 1.4347f
C9 a_40_297# a_26_199# 0.28026f
C10 a_40_47# VSUBS 0.86454f
C11 a_122_47# VSUBS 0.05506f
C12 a_40_297# VSUBS 0.73707f
C13 a_26_199# VSUBS 1.54575f
C14 w_n38_261# VSUBS 1.49072f
.ends

.subckt sky130_fd_sc_hd__inv_1 a_150_47# w_n38_261# a_68_47# a_68_297# a_64_199# VSUBS
X0 a_150_47# a_64_199# a_68_47# VSUBS sky130_fd_pr__nfet_01v8 ad=0.169 pd=1.82 as=0.169 ps=1.82 w=0.65 l=0.15
**devattr s=6760,364 d=6760,364
X1 a_150_47# a_64_199# a_68_297# w_n38_261# sky130_fd_pr__pfet_01v8_hvt ad=0.26 pd=2.52 as=0.26 ps=2.52 w=1 l=0.15
**devattr s=10400,504 d=10400,504
C0 w_n38_261# a_68_47# 0.00948f
C1 a_68_47# a_150_47# 0.09984f
C2 w_n38_261# a_150_47# 0.01774f
C3 a_68_297# a_68_47# 0.03382f
C4 w_n38_261# a_68_297# 0.05448f
C5 a_68_47# a_64_199# 0.04004f
C6 a_68_297# a_150_47# 0.12758f
C7 w_n38_261# a_64_199# 0.04506f
C8 a_64_199# a_150_47# 0.0476f
C9 a_68_297# a_64_199# 0.03703f
C10 a_68_47# VSUBS 0.25113f
C11 a_150_47# VSUBS 0.0961f
C12 a_68_297# VSUBS 0.21892f
C13 a_64_199# VSUBS 0.16664f
C14 w_n38_261# VSUBS 0.33898f
.ends

.subckt tt_um_ohmy90_ringOscillator clk A B CIN ua[1] ua[2] ua[3] ua[4] ua[5] ua[6]
+ ua[7] ui_in[0] ui_in[1] ui_in[2] ui_in[3] ui_in[4] ui_in[5] ui_in[6] ui_in[7] uio_in[0]
+ uio_in[1] uio_in[2] uio_in[3] uio_in[4] uio_in[5] uio_in[6] uio_in[7] uio_oe[0]
+ uio_oe[1] uio_oe[2] uio_oe[3] uio_oe[4] uio_oe[5] uio_oe[6] uio_oe[7] uio_out[0]
+ uio_out[1] uio_out[2] uio_out[3] uio_out[4] uio_out[5] uio_out[6] uio_out[7] uo_out[0]
+ uo_out[1] uo_out[2] uo_out[3] uo_out[4] uo_out[5] uo_out[6] uo_out[7]
Xsky130_fd_sc_hs__fa_1_6 A B sky130_fd_sc_hs__fa_1_6/CIN A VNB VPB B sky130_fd_sc_hs__fa_1_4/CIN
+ SUM a_12918_2677# a_12925_2949# a_12136_2991# a_12133_2677# a_12734_2949# a_11902_3194#
+ a_12754_2677# a_13432_3194# a_12055_2677# a_12319_2677# a_12327_2949# a_12035_2970#
+ sky130_fd_sc_hs__fa_1
Xsky130_fd_sc_hs__fa_1_7 A B sky130_fd_sc_hs__fa_1_7/CIN A VNB VPB B sky130_fd_sc_hs__fa_1_6/CIN
+ SUM a_10856_2681# a_10863_2953# a_10074_2995# a_10071_2681# a_10672_2953# a_9840_3198#
+ a_10692_2681# a_11370_3198# a_9993_2681# a_10257_2681# a_10265_2953# a_9973_2974#
+ sky130_fd_sc_hs__fa_1
Xsky130_fd_sc_hd__inv_8_0 A sky130_fd_sc_hd__inv_8_0/w_n38_261# B li_21382_2780# li_22548_2776#
+ VNB sky130_fd_sc_hd__inv_8
Xsky130_fd_sc_hd__inv_12_0 A sky130_fd_sc_hd__inv_12_0/w_n38_261# B li_22548_2776#
+ li_24080_2768# VNB sky130_fd_sc_hd__inv_12
Xsky130_fd_sc_hd__inv_6_0 A sky130_fd_sc_hd__inv_6_0/w_n38_261# B li_21382_2780# COUT
+ VNB sky130_fd_sc_hd__inv_6
Xsky130_fd_sc_hd__inv_4_0 A sky130_fd_sc_hd__inv_4_0/w_n38_261# B COUT COUT VNB sky130_fd_sc_hd__inv_4
Xsky130_fd_sc_hd__inv_2_0 sky130_fd_sc_hd__inv_2_0/w_n38_261# COUT A COUT B VNB sky130_fd_sc_hd__inv_2
Xsky130_fd_sc_hs__fa_1_0 A B CIN A VNB VPB B sky130_fd_sc_hs__fa_1_1/CIN SUM a_2598_2695#
+ a_2605_2967# a_1816_3009# a_1813_2695# a_2414_2967# a_1582_3212# a_2434_2695# a_3112_3212#
+ a_1735_2695# a_1999_2695# a_2007_2967# a_1715_2988# sky130_fd_sc_hs__fa_1
Xsky130_fd_sc_hs__inv_2_0 CIN sky130_fd_sc_hs__inv_2_0/w_n38_332# B A COUT VNB sky130_fd_sc_hs__inv_2
Xsky130_fd_sc_hs__fa_1_1 A B sky130_fd_sc_hs__fa_1_1/CIN A VNB VPB B sky130_fd_sc_hs__fa_1_3/CIN
+ SUM a_4660_2691# a_4667_2963# a_3878_3005# a_3875_2691# a_4476_2963# a_3644_3208#
+ a_4496_2691# a_5174_3208# a_3797_2691# a_4061_2691# a_4069_2963# a_3777_2984# sky130_fd_sc_hs__fa_1
Xsky130_fd_sc_hd__inv_16_0 B sky130_fd_sc_hd__inv_16_0/w_n38_261# A li_24080_2768#
+ a_27644_3049# VNB sky130_fd_sc_hd__inv_16
Xsky130_fd_sc_hd__inv_1_0 COUT sky130_fd_sc_hd__inv_1_0/w_n38_261# A B COUT VNB sky130_fd_sc_hd__inv_1
Xsky130_fd_sc_hd__inv_1_1 COUT w_18084_2861# A B COUT VNB sky130_fd_sc_hd__inv_1
Xsky130_fd_sc_hs__fa_1_2 A B sky130_fd_sc_hs__fa_1_2/CIN A VNB VPB B sky130_fd_sc_hs__fa_1_7/CIN
+ SUM a_8796_2685# a_8803_2957# a_8014_2999# a_8011_2685# a_8612_2957# a_7780_3202#
+ a_8632_2685# a_9310_3202# a_7933_2685# a_8197_2685# a_8205_2957# a_7913_2978# sky130_fd_sc_hs__fa_1